REMARK  Name = ../refined-set-2016/2c94/2c94_pocket.pdb
REMARK  210 active torsions:
REMARK  status: ('A' for Active; 'I' for Inactive)
REMARK    1  A    between atoms: _1  and  _3
REMARK    2  A    between atoms: _3  and  _4
REMARK    3  A    between atoms: _7  and  _9
REMARK    4  A    between atoms: _9  and  _10
REMARK    5  A    between atoms: _9  and  _12
REMARK    6  A    between atoms: _12  and  _13
REMARK    7  A    between atoms: _15  and  _17
REMARK    8  A    between atoms: _17  and  _18
REMARK    9  A    between atoms: _17  and  _20
REMARK   10  A    between atoms: _20  and  _21
REMARK   11  A    between atoms: _23  and  _25
REMARK   12  A    between atoms: _25  and  _26
REMARK   13  A    between atoms: _25  and  _28
REMARK   14  A    between atoms: _28  and  _29
REMARK   15  A    between atoms: _41  and  _42
REMARK   16  A    between atoms: _41  and  _44
REMARK   17  A    between atoms: _44  and  _45
REMARK   18  A    between atoms: _50  and  _52
REMARK   19  A    between atoms: _52  and  _53
REMARK   20  A    between atoms: _52  and  _55
REMARK   21  A    between atoms: _57  and  _59
REMARK   22  A    between atoms: _59  and  _60
REMARK   23  A    between atoms: _59  and  _62
REMARK   24  A    between atoms: _65  and  _67
REMARK   25  A    between atoms: _67  and  _68
REMARK   26  A    between atoms: _67  and  _70
REMARK   27  A    between atoms: _70  and  _71
REMARK   28  A    between atoms: _74  and  _76
REMARK   29  A    between atoms: _76  and  _77
REMARK   30  A    between atoms: _79  and  _81
REMARK   31  A    between atoms: _81  and  _82
REMARK   32  A    between atoms: _85  and  _87
REMARK   33  A    between atoms: _87  and  _88
REMARK   34  A    between atoms: _87  and  _90
REMARK   35  A    between atoms: _90  and  _91
REMARK   36  A    between atoms: _94  and  _96
REMARK   37  A    between atoms: _96  and  _97
REMARK   38  A    between atoms: _96  and  _99
REMARK   39  A    between atoms: _99  and  _100
REMARK   40  A    between atoms: _100  and  _101
REMARK   41  A    between atoms: _104  and  _106
REMARK   42  A    between atoms: _106  and  _107
REMARK   43  A    between atoms: _106  and  _109
REMARK   44  A    between atoms: _109  and  _110
REMARK   45  A    between atoms: _113  and  _115
REMARK   46  A    between atoms: _115  and  _116
REMARK   47  A    between atoms: _115  and  _118
REMARK   48  A    between atoms: _118  and  _119
REMARK   49  A    between atoms: _122  and  _124
REMARK   50  A    between atoms: _124  and  _125
REMARK   51  A    between atoms: _127  and  _129
REMARK   52  A    between atoms: _129  and  _130
REMARK   53  A    between atoms: _129  and  _132
REMARK   54  A    between atoms: _135  and  _137
REMARK   55  A    between atoms: _137  and  _138
REMARK   56  A    between atoms: _137  and  _140
REMARK   57  A    between atoms: _143  and  _145
REMARK   58  A    between atoms: _145  and  _146
REMARK   59  A    between atoms: _145  and  _148
REMARK   60  A    between atoms: _148  and  _149
REMARK   61  A    between atoms: _152  and  _154
REMARK   62  A    between atoms: _154  and  _155
REMARK   63  A    between atoms: _154  and  _157
REMARK   64  A    between atoms: _157  and  _158
REMARK   65  A    between atoms: _158  and  _159
REMARK   66  A    between atoms: _159  and  _160
REMARK   67  A    between atoms: _169  and  _171
REMARK   68  A    between atoms: _171  and  _172
REMARK   69  A    between atoms: _174  and  _176
REMARK   70  A    between atoms: _176  and  _177
REMARK   71  A    between atoms: _176  and  _179
REMARK   72  A    between atoms: _179  and  _180
REMARK   73  A    between atoms: _180  and  _181
REMARK   74  A    between atoms: _186  and  _188
REMARK   75  A    between atoms: _188  and  _189
REMARK   76  A    between atoms: _188  and  _191
REMARK   77  A    between atoms: _191  and  _192
REMARK   78  A    between atoms: _196  and  _197
REMARK   79  A    between atoms: _202  and  _204
REMARK   80  A    between atoms: _204  and  _205
REMARK   81  A    between atoms: _204  and  _207
REMARK   82  A    between atoms: _207  and  _208
REMARK   83  A    between atoms: _213  and  _215
REMARK   84  A    between atoms: _215  and  _216
REMARK   85  A    between atoms: _215  and  _218
REMARK   86  A    between atoms: _218  and  _219
REMARK   87  A    between atoms: _225  and  _227
REMARK   88  A    between atoms: _227  and  _228
REMARK   89  A    between atoms: _227  and  _230
REMARK   90  A    between atoms: _230  and  _231
REMARK   91  A    between atoms: _234  and  _236
REMARK   92  A    between atoms: _236  and  _237
REMARK   93  A    between atoms: _236  and  _239
REMARK   94  A    between atoms: _239  and  _240
REMARK   95  A    between atoms: _245  and  _246
REMARK   96  A    between atoms: _248  and  _250
REMARK   97  A    between atoms: _250  and  _251
REMARK   98  A    between atoms: _250  and  _253
REMARK   99  A    between atoms: _256  and  _258
REMARK  100  A    between atoms: _258  and  _259
REMARK  101  A    between atoms: _258  and  _261
REMARK  102  A    between atoms: _263  and  _265
REMARK  103  A    between atoms: _265  and  _266
REMARK  104  A    between atoms: _269  and  _271
REMARK  105  A    between atoms: _271  and  _272
REMARK  106  A    between atoms: _271  and  _274
REMARK  107  A    between atoms: _277  and  _279
REMARK  108  A    between atoms: _279  and  _280
REMARK  109  A    between atoms: _279  and  _282
REMARK  110  A    between atoms: _285  and  _287
REMARK  111  A    between atoms: _287  and  _288
REMARK  112  A    between atoms: _287  and  _290
REMARK  113  A    between atoms: _290  and  _291
REMARK  114  A    between atoms: _294  and  _296
REMARK  115  A    between atoms: _296  and  _297
REMARK  116  A    between atoms: _296  and  _299
REMARK  117  A    between atoms: _299  and  _300
REMARK  118  A    between atoms: _303  and  _305
REMARK  119  A    between atoms: _305  and  _306
REMARK  120  A    between atoms: _305  and  _308
REMARK  121  A    between atoms: _311  and  _313
REMARK  122  A    between atoms: _313  and  _314
REMARK  123  A    between atoms: _313  and  _316
REMARK  124  A    between atoms: _319  and  _321
REMARK  125  A    between atoms: _321  and  _322
REMARK  126  A    between atoms: _325  and  _327
REMARK  127  A    between atoms: _327  and  _328
REMARK  128  A    between atoms: _327  and  _330
REMARK  129  A    between atoms: _330  and  _331
REMARK  130  A    between atoms: _335  and  _336
REMARK  131  A    between atoms: _341  and  _343
REMARK  132  A    between atoms: _343  and  _344
REMARK  133  A    between atoms: _343  and  _346
REMARK  134  A    between atoms: _346  and  _347
REMARK  135  A    between atoms: _350  and  _352
REMARK  136  A    between atoms: _352  and  _353
REMARK  137  A    between atoms: _356  and  _358
REMARK  138  A    between atoms: _358  and  _359
REMARK  139  A    between atoms: _358  and  _361
REMARK  140  A    between atoms: _361  and  _362
REMARK  141  A    between atoms: _367  and  _369
REMARK  142  A    between atoms: _369  and  _370
REMARK  143  A    between atoms: _372  and  _374
REMARK  144  A    between atoms: _374  and  _375
REMARK  145  A    between atoms: _374  and  _377
REMARK  146  A    between atoms: _380  and  _382
REMARK  147  A    between atoms: _382  and  _383
REMARK  148  A    between atoms: _382  and  _385
REMARK  149  A    between atoms: _385  and  _386
REMARK  150  A    between atoms: _389  and  _391
REMARK  151  A    between atoms: _391  and  _392
REMARK  152  A    between atoms: _391  and  _394
REMARK  153  A    between atoms: _394  and  _395
REMARK  154  A    between atoms: _398  and  _400
REMARK  155  A    between atoms: _400  and  _401
REMARK  156  A    between atoms: _400  and  _403
REMARK  157  A    between atoms: _403  and  _404
REMARK  158  A    between atoms: _407  and  _409
REMARK  159  A    between atoms: _409  and  _410
REMARK  160  A    between atoms: _409  and  _412
REMARK  161  A    between atoms: _412  and  _413
REMARK  162  A    between atoms: _418  and  _420
REMARK  163  A    between atoms: _420  and  _421
REMARK  164  A    between atoms: _420  and  _423
REMARK  165  A    between atoms: _423  and  _424
REMARK  166  A    between atoms: _424  and  _425
REMARK  167  A    between atoms: _430  and  _432
REMARK  168  A    between atoms: _432  and  _433
REMARK  169  A    between atoms: _432  and  _435
REMARK  170  A    between atoms: _435  and  _436
REMARK  171  A    between atoms: _436  and  _437
REMARK  172  A    between atoms: _437  and  _438
REMARK  173  A    between atoms: _447  and  _449
REMARK  174  A    between atoms: _449  and  _450
REMARK  175  A    between atoms: _449  and  _452
REMARK  176  A    between atoms: _452  and  _453
REMARK  177  A    between atoms: _453  and  _454
REMARK  178  A    between atoms: _457  and  _459
REMARK  179  A    between atoms: _459  and  _460
REMARK  180  A    between atoms: _459  and  _462
REMARK  181  A    between atoms: _462  and  _463
REMARK  182  A    between atoms: _463  and  _464
REMARK  183  A    between atoms: _464  and  _465
REMARK  184  A    between atoms: _465  and  _466
REMARK  185  A    between atoms: _470  and  _472
REMARK  186  A    between atoms: _472  and  _473
REMARK  187  A    between atoms: _475  and  _477
REMARK  188  A    between atoms: _477  and  _478
REMARK  189  A    between atoms: _481  and  _483
REMARK  190  A    between atoms: _483  and  _484
REMARK  191  A    between atoms: _483  and  _486
REMARK  192  A    between atoms: _486  and  _487
REMARK  193  A    between atoms: _487  and  _488
REMARK  194  A    between atoms: _493  and  _495
REMARK  195  A    between atoms: _495  and  _496
REMARK  196  A    between atoms: _499  and  _501
REMARK  197  A    between atoms: _501  and  _502
REMARK  198  A    between atoms: _501  and  _504
REMARK  199  A    between atoms: _504  and  _505
REMARK  200  A    between atoms: _508  and  _510
REMARK  201  A    between atoms: _510  and  _511
REMARK  202  A    between atoms: _510  and  _513
REMARK  203  A    between atoms: _516  and  _518
REMARK  204  A    between atoms: _518  and  _519
REMARK  205  A    between atoms: _522  and  _524
REMARK  206  A    between atoms: _524  and  _525
REMARK  207  A    between atoms: _528  and  _530
REMARK  208  A    between atoms: _530  and  _531
REMARK  209  A    between atoms: _530  and  _533
REMARK  210  A    between atoms: _533  and  _534
REMARK                            x       y       z     vdW  Elec       q    Type
REMARK                         _______ _______ _______ _____ _____    ______ ____
ROOT
ATOM      1  CA  TRP A   4      37.405  -3.787   3.497  0.00  0.00    +0.153 C 
ENDROOT
BRANCH   1   2
ATOM      2  C   TRP A   4      37.956  -5.034   2.813  0.00  0.00    +0.244 C 
ATOM      3  O   TRP A   4      38.572  -5.874   3.470  0.00  0.00    -0.273 OA
ATOM      4  N   HIS A   5      37.729  -5.159   1.508  0.00  0.00    -0.283 N 
ATOM      5  H   HIS A   5      37.131  -4.458   1.025  0.00  0.00    +0.155 HD
ATOM      6  CA  HIS A   5      38.305  -6.266   0.736  0.00  0.00    +0.076 C 
BRANCH   6   7
ATOM      7  C   HIS A   5      37.282  -7.400   0.797  0.00  0.00    +0.245 C 
ATOM      8  O   HIS A   5      37.595  -8.508   1.244  0.00  0.00    -0.282 OA
ENDBRANCH   6   7
BRANCH   6   9
ATOM      9  CB  HIS A   5      39.720  -6.817   0.500  0.00  0.00    +0.092 C 
BRANCH   9  10
ATOM     10  CG  HIS A   5      40.785  -5.763   0.445  0.00  0.00    +0.086 A 
ATOM     11  CD2 HIS A   5      41.525  -5.188   1.425  0.00  0.00    +0.116 A 
ATOM     12  NE2 HIS A   5      42.350  -4.268   0.824  0.00  0.00    -0.221 NA
ATOM     13  CE1 HIS A   5      42.131  -4.281  -0.479  0.00  0.00    +0.199 A 
ATOM     14  ND1 HIS A   5      41.191  -5.174  -0.734  0.00  0.00    -0.226 NA
ENDBRANCH   9  10
ENDBRANCH   6   9
ENDBRANCH   1   2
BRANCH   1  16
ATOM     15  C   SER A   3      35.593  -5.310   4.141  0.00  0.00    +0.243 C 
ATOM     16  N   TRP A   4      36.682  -4.614   4.459  0.00  0.00    -0.297 N 
ATOM     17  H   TRP A   4      37.034  -4.661   5.437  0.00  0.00    +0.150 HD
ATOM     18  O   SER A   3      35.204  -5.476   2.987  0.00  0.00    -0.273 OA
BRANCH  15  19
ATOM     19  CA  SER A   3      34.806  -5.909   5.295  0.00  0.00    +0.178 C 
BRANCH  19  22
ATOM     20  C   SER A   2      35.952  -6.867   7.223  0.00  0.00    +0.243 C 
ATOM     21  O   SER A   2      35.934  -7.987   6.717  0.00  0.00    -0.273 OA
ATOM     22  N   SER A   3      35.481  -5.792   6.593  0.00  0.00    -0.295 N 
ATOM     23  H   SER A   3      35.593  -4.854   7.028  0.00  0.00    +0.150 HD
BRANCH  20  24
ATOM     24  CA  SER A   2      36.501  -6.685   8.638  0.00  0.00    +0.178 C 
BRANCH  24  27
ATOM     25  C   ALA A   1      35.399  -8.582   9.719  0.00  0.00    +0.238 C 
ATOM     26  O   ALA A   1      34.277  -8.073   9.675  0.00  0.00    -0.274 OA
ATOM     27  N   SER A   2      36.500  -7.989   9.272  0.00  0.00    -0.295 N 
ATOM     28  H   SER A   2      37.407  -8.485   9.382  0.00  0.00    +0.150 HD
BRANCH  25  29
ATOM     29  CA  ALA A   1      35.607  -9.962  10.301  0.00  0.00    +0.145 C 
ATOM     30  CB  ALA A   1      35.041 -11.031   9.363  0.00  0.00    +0.028 C 
BRANCH  29  31
ATOM     31  N   ALA A   1      34.996 -10.054  11.614  0.00  0.00    -0.238 NA
ATOM     32  H   ALA A   1      33.984  -9.840  11.721  0.00  0.00    +0.142 HD
ENDBRANCH  29  31
ENDBRANCH  25  29
ENDBRANCH  24  27
BRANCH  24  33
ATOM     33  CB  SER A   2      37.935  -6.137   8.649  0.00  0.00    +0.166 C 
BRANCH  33  34
ATOM     34  OG  SER A   2      38.065  -5.018   7.803  0.00  0.00    -0.380 OA
ATOM     35  H   SER A   2      38.999  -4.690   7.833  0.00  0.00    +0.211 HD
ENDBRANCH  33  34
ENDBRANCH  24  33
ENDBRANCH  20  24
ENDBRANCH  19  22
BRANCH  19  36
ATOM     36  CB  SER A   3      33.435  -5.224   5.338  0.00  0.00    +0.166 C 
BRANCH  36  37
ATOM     37  OG  SER A   3      32.594  -5.867   6.264  0.00  0.00    -0.380 OA
ATOM     38  H   SER A   3      33.004  -5.826   7.164  0.00  0.00    +0.211 HD
ENDBRANCH  36  37
ENDBRANCH  19  36
ENDBRANCH  15  19
ENDBRANCH   1  16
BRANCH   1  39
ATOM     39  CB  TRP A   4      38.781  -3.405   4.029  0.00  0.00    +0.057 C 
BRANCH  39  40
ATOM     40  CG  TRP A   4      38.686  -1.921   4.034  0.00  0.00    -0.002 A 
ATOM     41  CD1 TRP A   4      37.930  -1.139   4.871  0.00  0.00    +0.068 A 
ATOM     42  NE1 TRP A   4      38.113   0.193   4.571  0.00  0.00    -0.352 N 
ATOM     43  HE1 TRP A   4      37.653   0.992   5.053  0.00  0.00    +0.166 HD
ATOM     44  CE2 TRP A   4      39.002   0.292   3.531  0.00  0.00    +0.056 A 
ATOM     45  CZ2 TRP A   4      39.497   1.419   2.878  0.00  0.00    +0.017 A 
ATOM     46  CH2 TRP A   4      40.384   1.212   1.851  0.00  0.00    +0.001 A 
ATOM     47  CZ3 TRP A   4      40.789  -0.083   1.475  0.00  0.00    +0.000 A 
ATOM     48  CE3 TRP A   4      40.297  -1.200   2.118  0.00  0.00    +0.001 A 
ATOM     49  CD2 TRP A   4      39.384  -1.023   3.168  0.00  0.00    +0.013 A 
ENDBRANCH  39  40
ENDBRANCH   1  39
TORSDOF 17
REMARK  Name = ../refined-set-2016/2c94/2c94_pocket.pdb
REMARK  210 active torsions:
REMARK  status: ('A' for Active; 'I' for Inactive)
REMARK    1  A    between atoms: _1  and  _3
REMARK    2  A    between atoms: _3  and  _4
REMARK    3  A    between atoms: _7  and  _9
REMARK    4  A    between atoms: _9  and  _10
REMARK    5  A    between atoms: _9  and  _12
REMARK    6  A    between atoms: _12  and  _13
REMARK    7  A    between atoms: _15  and  _17
REMARK    8  A    between atoms: _17  and  _18
REMARK    9  A    between atoms: _17  and  _20
REMARK   10  A    between atoms: _20  and  _21
REMARK   11  A    between atoms: _23  and  _25
REMARK   12  A    between atoms: _25  and  _26
REMARK   13  A    between atoms: _25  and  _28
REMARK   14  A    between atoms: _28  and  _29
REMARK   15  A    between atoms: _41  and  _42
REMARK   16  A    between atoms: _41  and  _44
REMARK   17  A    between atoms: _44  and  _45
REMARK   18  A    between atoms: _50  and  _52
REMARK   19  A    between atoms: _52  and  _53
REMARK   20  A    between atoms: _52  and  _55
REMARK   21  A    between atoms: _57  and  _59
REMARK   22  A    between atoms: _59  and  _60
REMARK   23  A    between atoms: _59  and  _62
REMARK   24  A    between atoms: _65  and  _67
REMARK   25  A    between atoms: _67  and  _68
REMARK   26  A    between atoms: _67  and  _70
REMARK   27  A    between atoms: _70  and  _71
REMARK   28  A    between atoms: _74  and  _76
REMARK   29  A    between atoms: _76  and  _77
REMARK   30  A    between atoms: _79  and  _81
REMARK   31  A    between atoms: _81  and  _82
REMARK   32  A    between atoms: _85  and  _87
REMARK   33  A    between atoms: _87  and  _88
REMARK   34  A    between atoms: _87  and  _90
REMARK   35  A    between atoms: _90  and  _91
REMARK   36  A    between atoms: _94  and  _96
REMARK   37  A    between atoms: _96  and  _97
REMARK   38  A    between atoms: _96  and  _99
REMARK   39  A    between atoms: _99  and  _100
REMARK   40  A    between atoms: _100  and  _101
REMARK   41  A    between atoms: _104  and  _106
REMARK   42  A    between atoms: _106  and  _107
REMARK   43  A    between atoms: _106  and  _109
REMARK   44  A    between atoms: _109  and  _110
REMARK   45  A    between atoms: _113  and  _115
REMARK   46  A    between atoms: _115  and  _116
REMARK   47  A    between atoms: _115  and  _118
REMARK   48  A    between atoms: _118  and  _119
REMARK   49  A    between atoms: _122  and  _124
REMARK   50  A    between atoms: _124  and  _125
REMARK   51  A    between atoms: _127  and  _129
REMARK   52  A    between atoms: _129  and  _130
REMARK   53  A    between atoms: _129  and  _132
REMARK   54  A    between atoms: _135  and  _137
REMARK   55  A    between atoms: _137  and  _138
REMARK   56  A    between atoms: _137  and  _140
REMARK   57  A    between atoms: _143  and  _145
REMARK   58  A    between atoms: _145  and  _146
REMARK   59  A    between atoms: _145  and  _148
REMARK   60  A    between atoms: _148  and  _149
REMARK   61  A    between atoms: _152  and  _154
REMARK   62  A    between atoms: _154  and  _155
REMARK   63  A    between atoms: _154  and  _157
REMARK   64  A    between atoms: _157  and  _158
REMARK   65  A    between atoms: _158  and  _159
REMARK   66  A    between atoms: _159  and  _160
REMARK   67  A    between atoms: _169  and  _171
REMARK   68  A    between atoms: _171  and  _172
REMARK   69  A    between atoms: _174  and  _176
REMARK   70  A    between atoms: _176  and  _177
REMARK   71  A    between atoms: _176  and  _179
REMARK   72  A    between atoms: _179  and  _180
REMARK   73  A    between atoms: _180  and  _181
REMARK   74  A    between atoms: _186  and  _188
REMARK   75  A    between atoms: _188  and  _189
REMARK   76  A    between atoms: _188  and  _191
REMARK   77  A    between atoms: _191  and  _192
REMARK   78  A    between atoms: _196  and  _197
REMARK   79  A    between atoms: _202  and  _204
REMARK   80  A    between atoms: _204  and  _205
REMARK   81  A    between atoms: _204  and  _207
REMARK   82  A    between atoms: _207  and  _208
REMARK   83  A    between atoms: _213  and  _215
REMARK   84  A    between atoms: _215  and  _216
REMARK   85  A    between atoms: _215  and  _218
REMARK   86  A    between atoms: _218  and  _219
REMARK   87  A    between atoms: _225  and  _227
REMARK   88  A    between atoms: _227  and  _228
REMARK   89  A    between atoms: _227  and  _230
REMARK   90  A    between atoms: _230  and  _231
REMARK   91  A    between atoms: _234  and  _236
REMARK   92  A    between atoms: _236  and  _237
REMARK   93  A    between atoms: _236  and  _239
REMARK   94  A    between atoms: _239  and  _240
REMARK   95  A    between atoms: _245  and  _246
REMARK   96  A    between atoms: _248  and  _250
REMARK   97  A    between atoms: _250  and  _251
REMARK   98  A    between atoms: _250  and  _253
REMARK   99  A    between atoms: _256  and  _258
REMARK  100  A    between atoms: _258  and  _259
REMARK  101  A    between atoms: _258  and  _261
REMARK  102  A    between atoms: _263  and  _265
REMARK  103  A    between atoms: _265  and  _266
REMARK  104  A    between atoms: _269  and  _271
REMARK  105  A    between atoms: _271  and  _272
REMARK  106  A    between atoms: _271  and  _274
REMARK  107  A    between atoms: _277  and  _279
REMARK  108  A    between atoms: _279  and  _280
REMARK  109  A    between atoms: _279  and  _282
REMARK  110  A    between atoms: _285  and  _287
REMARK  111  A    between atoms: _287  and  _288
REMARK  112  A    between atoms: _287  and  _290
REMARK  113  A    between atoms: _290  and  _291
REMARK  114  A    between atoms: _294  and  _296
REMARK  115  A    between atoms: _296  and  _297
REMARK  116  A    between atoms: _296  and  _299
REMARK  117  A    between atoms: _299  and  _300
REMARK  118  A    between atoms: _303  and  _305
REMARK  119  A    between atoms: _305  and  _306
REMARK  120  A    between atoms: _305  and  _308
REMARK  121  A    between atoms: _311  and  _313
REMARK  122  A    between atoms: _313  and  _314
REMARK  123  A    between atoms: _313  and  _316
REMARK  124  A    between atoms: _319  and  _321
REMARK  125  A    between atoms: _321  and  _322
REMARK  126  A    between atoms: _325  and  _327
REMARK  127  A    between atoms: _327  and  _328
REMARK  128  A    between atoms: _327  and  _330
REMARK  129  A    between atoms: _330  and  _331
REMARK  130  A    between atoms: _335  and  _336
REMARK  131  A    between atoms: _341  and  _343
REMARK  132  A    between atoms: _343  and  _344
REMARK  133  A    between atoms: _343  and  _346
REMARK  134  A    between atoms: _346  and  _347
REMARK  135  A    between atoms: _350  and  _352
REMARK  136  A    between atoms: _352  and  _353
REMARK  137  A    between atoms: _356  and  _358
REMARK  138  A    between atoms: _358  and  _359
REMARK  139  A    between atoms: _358  and  _361
REMARK  140  A    between atoms: _361  and  _362
REMARK  141  A    between atoms: _367  and  _369
REMARK  142  A    between atoms: _369  and  _370
REMARK  143  A    between atoms: _372  and  _374
REMARK  144  A    between atoms: _374  and  _375
REMARK  145  A    between atoms: _374  and  _377
REMARK  146  A    between atoms: _380  and  _382
REMARK  147  A    between atoms: _382  and  _383
REMARK  148  A    between atoms: _382  and  _385
REMARK  149  A    between atoms: _385  and  _386
REMARK  150  A    between atoms: _389  and  _391
REMARK  151  A    between atoms: _391  and  _392
REMARK  152  A    between atoms: _391  and  _394
REMARK  153  A    between atoms: _394  and  _395
REMARK  154  A    between atoms: _398  and  _400
REMARK  155  A    between atoms: _400  and  _401
REMARK  156  A    between atoms: _400  and  _403
REMARK  157  A    between atoms: _403  and  _404
REMARK  158  A    between atoms: _407  and  _409
REMARK  159  A    between atoms: _409  and  _410
REMARK  160  A    between atoms: _409  and  _412
REMARK  161  A    between atoms: _412  and  _413
REMARK  162  A    between atoms: _418  and  _420
REMARK  163  A    between atoms: _420  and  _421
REMARK  164  A    between atoms: _420  and  _423
REMARK  165  A    between atoms: _423  and  _424
REMARK  166  A    between atoms: _424  and  _425
REMARK  167  A    between atoms: _430  and  _432
REMARK  168  A    between atoms: _432  and  _433
REMARK  169  A    between atoms: _432  and  _435
REMARK  170  A    between atoms: _435  and  _436
REMARK  171  A    between atoms: _436  and  _437
REMARK  172  A    between atoms: _437  and  _438
REMARK  173  A    between atoms: _447  and  _449
REMARK  174  A    between atoms: _449  and  _450
REMARK  175  A    between atoms: _449  and  _452
REMARK  176  A    between atoms: _452  and  _453
REMARK  177  A    between atoms: _453  and  _454
REMARK  178  A    between atoms: _457  and  _459
REMARK  179  A    between atoms: _459  and  _460
REMARK  180  A    between atoms: _459  and  _462
REMARK  181  A    between atoms: _462  and  _463
REMARK  182  A    between atoms: _463  and  _464
REMARK  183  A    between atoms: _464  and  _465
REMARK  184  A    between atoms: _465  and  _466
REMARK  185  A    between atoms: _470  and  _472
REMARK  186  A    between atoms: _472  and  _473
REMARK  187  A    between atoms: _475  and  _477
REMARK  188  A    between atoms: _477  and  _478
REMARK  189  A    between atoms: _481  and  _483
REMARK  190  A    between atoms: _483  and  _484
REMARK  191  A    between atoms: _483  and  _486
REMARK  192  A    between atoms: _486  and  _487
REMARK  193  A    between atoms: _487  and  _488
REMARK  194  A    between atoms: _493  and  _495
REMARK  195  A    between atoms: _495  and  _496
REMARK  196  A    between atoms: _499  and  _501
REMARK  197  A    between atoms: _501  and  _502
REMARK  198  A    between atoms: _501  and  _504
REMARK  199  A    between atoms: _504  and  _505
REMARK  200  A    between atoms: _508  and  _510
REMARK  201  A    between atoms: _510  and  _511
REMARK  202  A    between atoms: _510  and  _513
REMARK  203  A    between atoms: _516  and  _518
REMARK  204  A    between atoms: _518  and  _519
REMARK  205  A    between atoms: _522  and  _524
REMARK  206  A    between atoms: _524  and  _525
REMARK  207  A    between atoms: _528  and  _530
REMARK  208  A    between atoms: _530  and  _531
REMARK  209  A    between atoms: _530  and  _533
REMARK  210  A    between atoms: _533  and  _534
REMARK                            x       y       z     vdW  Elec       q    Type
REMARK                         _______ _______ _______ _____ _____    ______ ____
ROOT
ATOM      1  CA  CYS A   1      37.111 -11.271   3.834  0.00  0.00    +0.145 C 
ENDROOT
BRANCH   1   2
ATOM      2  N   CYS A   1      37.649 -11.200   2.482  0.00  0.00    -0.238 NA
ATOM      3  H   CYS A   1      37.508 -10.335   1.923  0.00  0.00    +0.142 HD
ENDBRANCH   1   2
BRANCH   1   4
ATOM      4  CB  CYS A   1      36.613  -9.895   4.287  0.00  0.00    +0.094 C 
ATOM      5  SG  CYS A   1      37.977  -8.667   4.495  0.00  0.00    -0.080 S 
ENDBRANCH   1   4
BRANCH   1   6
ATOM      6  C   CYS A   1      36.034 -12.351   3.951  0.00  0.00    +0.225 C 
ATOM      7  O   CYS A   1      36.073 -13.156   4.872  0.00  0.00    -0.287 OA
ENDBRANCH   1   6
TORSDOF 3
REMARK  Name = ../refined-set-2016/2c94/2c94_pocket.pdb
REMARK  210 active torsions:
REMARK  status: ('A' for Active; 'I' for Inactive)
REMARK    1  A    between atoms: _1  and  _3
REMARK    2  A    between atoms: _3  and  _4
REMARK    3  A    between atoms: _7  and  _9
REMARK    4  A    between atoms: _9  and  _10
REMARK    5  A    between atoms: _9  and  _12
REMARK    6  A    between atoms: _12  and  _13
REMARK    7  A    between atoms: _15  and  _17
REMARK    8  A    between atoms: _17  and  _18
REMARK    9  A    between atoms: _17  and  _20
REMARK   10  A    between atoms: _20  and  _21
REMARK   11  A    between atoms: _23  and  _25
REMARK   12  A    between atoms: _25  and  _26
REMARK   13  A    between atoms: _25  and  _28
REMARK   14  A    between atoms: _28  and  _29
REMARK   15  A    between atoms: _41  and  _42
REMARK   16  A    between atoms: _41  and  _44
REMARK   17  A    between atoms: _44  and  _45
REMARK   18  A    between atoms: _50  and  _52
REMARK   19  A    between atoms: _52  and  _53
REMARK   20  A    between atoms: _52  and  _55
REMARK   21  A    between atoms: _57  and  _59
REMARK   22  A    between atoms: _59  and  _60
REMARK   23  A    between atoms: _59  and  _62
REMARK   24  A    between atoms: _65  and  _67
REMARK   25  A    between atoms: _67  and  _68
REMARK   26  A    between atoms: _67  and  _70
REMARK   27  A    between atoms: _70  and  _71
REMARK   28  A    between atoms: _74  and  _76
REMARK   29  A    between atoms: _76  and  _77
REMARK   30  A    between atoms: _79  and  _81
REMARK   31  A    between atoms: _81  and  _82
REMARK   32  A    between atoms: _85  and  _87
REMARK   33  A    between atoms: _87  and  _88
REMARK   34  A    between atoms: _87  and  _90
REMARK   35  A    between atoms: _90  and  _91
REMARK   36  A    between atoms: _94  and  _96
REMARK   37  A    between atoms: _96  and  _97
REMARK   38  A    between atoms: _96  and  _99
REMARK   39  A    between atoms: _99  and  _100
REMARK   40  A    between atoms: _100  and  _101
REMARK   41  A    between atoms: _104  and  _106
REMARK   42  A    between atoms: _106  and  _107
REMARK   43  A    between atoms: _106  and  _109
REMARK   44  A    between atoms: _109  and  _110
REMARK   45  A    between atoms: _113  and  _115
REMARK   46  A    between atoms: _115  and  _116
REMARK   47  A    between atoms: _115  and  _118
REMARK   48  A    between atoms: _118  and  _119
REMARK   49  A    between atoms: _122  and  _124
REMARK   50  A    between atoms: _124  and  _125
REMARK   51  A    between atoms: _127  and  _129
REMARK   52  A    between atoms: _129  and  _130
REMARK   53  A    between atoms: _129  and  _132
REMARK   54  A    between atoms: _135  and  _137
REMARK   55  A    between atoms: _137  and  _138
REMARK   56  A    between atoms: _137  and  _140
REMARK   57  A    between atoms: _143  and  _145
REMARK   58  A    between atoms: _145  and  _146
REMARK   59  A    between atoms: _145  and  _148
REMARK   60  A    between atoms: _148  and  _149
REMARK   61  A    between atoms: _152  and  _154
REMARK   62  A    between atoms: _154  and  _155
REMARK   63  A    between atoms: _154  and  _157
REMARK   64  A    between atoms: _157  and  _158
REMARK   65  A    between atoms: _158  and  _159
REMARK   66  A    between atoms: _159  and  _160
REMARK   67  A    between atoms: _169  and  _171
REMARK   68  A    between atoms: _171  and  _172
REMARK   69  A    between atoms: _174  and  _176
REMARK   70  A    between atoms: _176  and  _177
REMARK   71  A    between atoms: _176  and  _179
REMARK   72  A    between atoms: _179  and  _180
REMARK   73  A    between atoms: _180  and  _181
REMARK   74  A    between atoms: _186  and  _188
REMARK   75  A    between atoms: _188  and  _189
REMARK   76  A    between atoms: _188  and  _191
REMARK   77  A    between atoms: _191  and  _192
REMARK   78  A    between atoms: _196  and  _197
REMARK   79  A    between atoms: _202  and  _204
REMARK   80  A    between atoms: _204  and  _205
REMARK   81  A    between atoms: _204  and  _207
REMARK   82  A    between atoms: _207  and  _208
REMARK   83  A    between atoms: _213  and  _215
REMARK   84  A    between atoms: _215  and  _216
REMARK   85  A    between atoms: _215  and  _218
REMARK   86  A    between atoms: _218  and  _219
REMARK   87  A    between atoms: _225  and  _227
REMARK   88  A    between atoms: _227  and  _228
REMARK   89  A    between atoms: _227  and  _230
REMARK   90  A    between atoms: _230  and  _231
REMARK   91  A    between atoms: _234  and  _236
REMARK   92  A    between atoms: _236  and  _237
REMARK   93  A    between atoms: _236  and  _239
REMARK   94  A    between atoms: _239  and  _240
REMARK   95  A    between atoms: _245  and  _246
REMARK   96  A    between atoms: _248  and  _250
REMARK   97  A    between atoms: _250  and  _251
REMARK   98  A    between atoms: _250  and  _253
REMARK   99  A    between atoms: _256  and  _258
REMARK  100  A    between atoms: _258  and  _259
REMARK  101  A    between atoms: _258  and  _261
REMARK  102  A    between atoms: _263  and  _265
REMARK  103  A    between atoms: _265  and  _266
REMARK  104  A    between atoms: _269  and  _271
REMARK  105  A    between atoms: _271  and  _272
REMARK  106  A    between atoms: _271  and  _274
REMARK  107  A    between atoms: _277  and  _279
REMARK  108  A    between atoms: _279  and  _280
REMARK  109  A    between atoms: _279  and  _282
REMARK  110  A    between atoms: _285  and  _287
REMARK  111  A    between atoms: _287  and  _288
REMARK  112  A    between atoms: _287  and  _290
REMARK  113  A    between atoms: _290  and  _291
REMARK  114  A    between atoms: _294  and  _296
REMARK  115  A    between atoms: _296  and  _297
REMARK  116  A    between atoms: _296  and  _299
REMARK  117  A    between atoms: _299  and  _300
REMARK  118  A    between atoms: _303  and  _305
REMARK  119  A    between atoms: _305  and  _306
REMARK  120  A    between atoms: _305  and  _308
REMARK  121  A    between atoms: _311  and  _313
REMARK  122  A    between atoms: _313  and  _314
REMARK  123  A    between atoms: _313  and  _316
REMARK  124  A    between atoms: _319  and  _321
REMARK  125  A    between atoms: _321  and  _322
REMARK  126  A    between atoms: _325  and  _327
REMARK  127  A    between atoms: _327  and  _328
REMARK  128  A    between atoms: _327  and  _330
REMARK  129  A    between atoms: _330  and  _331
REMARK  130  A    between atoms: _335  and  _336
REMARK  131  A    between atoms: _341  and  _343
REMARK  132  A    between atoms: _343  and  _344
REMARK  133  A    between atoms: _343  and  _346
REMARK  134  A    between atoms: _346  and  _347
REMARK  135  A    between atoms: _350  and  _352
REMARK  136  A    between atoms: _352  and  _353
REMARK  137  A    between atoms: _356  and  _358
REMARK  138  A    between atoms: _358  and  _359
REMARK  139  A    between atoms: _358  and  _361
REMARK  140  A    between atoms: _361  and  _362
REMARK  141  A    between atoms: _367  and  _369
REMARK  142  A    between atoms: _369  and  _370
REMARK  143  A    between atoms: _372  and  _374
REMARK  144  A    between atoms: _374  and  _375
REMARK  145  A    between atoms: _374  and  _377
REMARK  146  A    between atoms: _380  and  _382
REMARK  147  A    between atoms: _382  and  _383
REMARK  148  A    between atoms: _382  and  _385
REMARK  149  A    between atoms: _385  and  _386
REMARK  150  A    between atoms: _389  and  _391
REMARK  151  A    between atoms: _391  and  _392
REMARK  152  A    between atoms: _391  and  _394
REMARK  153  A    between atoms: _394  and  _395
REMARK  154  A    between atoms: _398  and  _400
REMARK  155  A    between atoms: _400  and  _401
REMARK  156  A    between atoms: _400  and  _403
REMARK  157  A    between atoms: _403  and  _404
REMARK  158  A    between atoms: _407  and  _409
REMARK  159  A    between atoms: _409  and  _410
REMARK  160  A    between atoms: _409  and  _412
REMARK  161  A    between atoms: _412  and  _413
REMARK  162  A    between atoms: _418  and  _420
REMARK  163  A    between atoms: _420  and  _421
REMARK  164  A    between atoms: _420  and  _423
REMARK  165  A    between atoms: _423  and  _424
REMARK  166  A    between atoms: _424  and  _425
REMARK  167  A    between atoms: _430  and  _432
REMARK  168  A    between atoms: _432  and  _433
REMARK  169  A    between atoms: _432  and  _435
REMARK  170  A    between atoms: _435  and  _436
REMARK  171  A    between atoms: _436  and  _437
REMARK  172  A    between atoms: _437  and  _438
REMARK  173  A    between atoms: _447  and  _449
REMARK  174  A    between atoms: _449  and  _450
REMARK  175  A    between atoms: _449  and  _452
REMARK  176  A    between atoms: _452  and  _453
REMARK  177  A    between atoms: _453  and  _454
REMARK  178  A    between atoms: _457  and  _459
REMARK  179  A    between atoms: _459  and  _460
REMARK  180  A    between atoms: _459  and  _462
REMARK  181  A    between atoms: _462  and  _463
REMARK  182  A    between atoms: _463  and  _464
REMARK  183  A    between atoms: _464  and  _465
REMARK  184  A    between atoms: _465  and  _466
REMARK  185  A    between atoms: _470  and  _472
REMARK  186  A    between atoms: _472  and  _473
REMARK  187  A    between atoms: _475  and  _477
REMARK  188  A    between atoms: _477  and  _478
REMARK  189  A    between atoms: _481  and  _483
REMARK  190  A    between atoms: _483  and  _484
REMARK  191  A    between atoms: _483  and  _486
REMARK  192  A    between atoms: _486  and  _487
REMARK  193  A    between atoms: _487  and  _488
REMARK  194  A    between atoms: _493  and  _495
REMARK  195  A    between atoms: _495  and  _496
REMARK  196  A    between atoms: _499  and  _501
REMARK  197  A    between atoms: _501  and  _502
REMARK  198  A    between atoms: _501  and  _504
REMARK  199  A    between atoms: _504  and  _505
REMARK  200  A    between atoms: _508  and  _510
REMARK  201  A    between atoms: _510  and  _511
REMARK  202  A    between atoms: _510  and  _513
REMARK  203  A    between atoms: _516  and  _518
REMARK  204  A    between atoms: _518  and  _519
REMARK  205  A    between atoms: _522  and  _524
REMARK  206  A    between atoms: _524  and  _525
REMARK  207  A    between atoms: _528  and  _530
REMARK  208  A    between atoms: _530  and  _531
REMARK  209  A    between atoms: _530  and  _533
REMARK  210  A    between atoms: _533  and  _534
REMARK                            x       y       z     vdW  Elec       q    Type
REMARK                         _______ _______ _______ _____ _____    ______ ____
ROOT
ATOM      1  C   ALA A   4      40.857  -2.852  11.701  0.00  0.00    +0.241 C 
ATOM      2  O   ALA A   4      40.907  -3.412  12.793  0.00  0.00    -0.273 OA
ATOM      3  N   ILE A   5      40.916  -1.524  11.571  0.00  0.00    -0.297 N 
ATOM      4  H   ILE A   5      40.844  -1.090  10.629  0.00  0.00    +0.150 HD
ENDROOT
BRANCH   1   5
ATOM      5  CA  ALA A   4      40.699  -3.681  10.424  0.00  0.00    +0.149 C 
ATOM      6  CB  ALA A   4      42.065  -4.109   9.885  0.00  0.00    +0.031 C 
BRANCH   5   9
ATOM      7  C   GLY A   3      38.647  -2.644   9.613  0.00  0.00    +0.243 C 
ATOM      8  O   GLY A   3      38.066  -2.860  10.679  0.00  0.00    -0.273 OA
ATOM      9  N   ALA A   4      39.908  -3.014   9.385  0.00  0.00    -0.297 N 
ATOM     10  H   ALA A   4      40.337  -2.827   8.456  0.00  0.00    +0.150 HD
BRANCH   7  11
ATOM     11  CA  GLY A   3      37.941  -1.921   8.485  0.00  0.00    +0.176 C 
BRANCH  11  13
ATOM     12  C   LEU A   2      35.630  -2.236   7.778  0.00  0.00    +0.241 C 
ATOM     13  N   GLY A   3      36.496  -1.812   8.694  0.00  0.00    -0.295 N 
ATOM     14  H   GLY A   3      36.139  -1.394   9.577  0.00  0.00    +0.150 HD
ATOM     15  O   LEU A   2      35.986  -2.753   6.710  0.00  0.00    -0.273 OA
BRANCH  12  16
ATOM     16  CA  LEU A   2      34.142  -2.069   8.101  0.00  0.00    +0.149 C 
BRANCH  16  18
ATOM     17  C   VAL A   1      33.628  -3.935   9.530  0.00  0.00    +0.238 C 
ATOM     18  N   LEU A   2      33.737  -2.621   9.394  0.00  0.00    -0.297 N 
ATOM     19  H   LEU A   2      33.537  -1.990  10.196  0.00  0.00    +0.150 HD
ATOM     20  O   VAL A   1      33.960  -4.713   8.639  0.00  0.00    -0.274 OA
BRANCH  17  21
ATOM     21  CA  VAL A   1      33.082  -4.457  10.855  0.00  0.00    +0.145 C 
BRANCH  21  22
ATOM     22  CB  VAL A   1      34.108  -4.230  11.986  0.00  0.00    +0.025 C 
ATOM     23  CG2 VAL A   1      33.521  -4.630  13.344  0.00  0.00    +0.002 C 
ATOM     24  CG1 VAL A   1      35.406  -4.972  11.716  0.00  0.00    +0.002 C 
ENDBRANCH  21  22
BRANCH  21  25
ATOM     25  N   VAL A   1      32.715  -5.865  10.697  0.00  0.00    -0.238 NA
ATOM     26  H   VAL A   1      33.420  -6.539  10.336  0.00  0.00    +0.142 HD
ENDBRANCH  21  25
ENDBRANCH  17  21
ENDBRANCH  16  18
BRANCH  16  27
ATOM     27  CB  LEU A   2      33.645  -0.634   7.948  0.00  0.00    +0.029 C 
BRANCH  27  28
ATOM     28  CG  LEU A   2      32.167  -0.659   7.523  0.00  0.00    +0.002 C 
ATOM     29  CD2 LEU A   2      31.507   0.685   7.719  0.00  0.00    +0.000 C 
ATOM     30  CD1 LEU A   2      32.011  -1.108   6.071  0.00  0.00    +0.000 C 
ENDBRANCH  27  28
ENDBRANCH  16  27
ENDBRANCH  12  16
ENDBRANCH  11  13
ENDBRANCH   7  11
ENDBRANCH   5   9
ENDBRANCH   1   5
BRANCH   3  31
ATOM     31  CA  ILE A   5      41.083  -0.675  12.760  0.00  0.00    +0.149 C 
BRANCH  31  32
ATOM     32  C   ILE A   5      39.896  -0.820  13.727  0.00  0.00    +0.241 C 
ATOM     33  O   ILE A   5      40.054  -0.652  14.935  0.00  0.00    -0.273 OA
ATOM     34  N   GLU A   6      38.722  -1.161  13.189  0.00  0.00    -0.297 N 
ATOM     35  H   GLU A   6      38.661  -1.321  12.163  0.00  0.00    +0.150 HD
BRANCH  34  36
ATOM     36  CA  GLU A   6      37.513  -1.315  14.012  0.00  0.00    +0.149 C 
BRANCH  36  37
ATOM     37  C   GLU A   6      37.467  -2.653  14.765  0.00  0.00    +0.241 C 
ATOM     38  O   GLU A   6      36.648  -2.841  15.667  0.00  0.00    -0.273 OA
ATOM     39  N   ILE A   7      38.351  -3.573  14.406  0.00  0.00    -0.298 N 
ATOM     40  H   ILE A   7      39.088  -3.337  13.711  0.00  0.00    +0.150 HD
BRANCH  39  41
ATOM     41  CA  ILE A   7      38.299  -4.919  14.979  0.00  0.00    +0.137 C 
BRANCH  41  42
ATOM     42  CB  ILE A   7      39.233  -5.924  14.258  0.00  0.00    +0.026 C 
ATOM     43  CG2 ILE A   7      39.246  -7.260  14.998  0.00  0.00    +0.002 C 
BRANCH  42  44
ATOM     44  CG1 ILE A   7      38.804  -6.128  12.796  0.00  0.00    +0.002 C 
ATOM     45  CD1 ILE A   7      39.739  -7.039  12.000  0.00  0.00    +0.000 C 
ENDBRANCH  42  44
ENDBRANCH  41  42
BRANCH  41  46
ATOM     46  C   ILE A   7      38.521  -4.955  16.505  0.00  0.00    +0.227 C 
ATOM     47  O   ILE A   7      37.698  -5.538  17.214  0.00  0.00    -0.286 OA
ENDBRANCH  41  46
ENDBRANCH  39  41
ENDBRANCH  36  37
BRANCH  36  48
ATOM     48  CB  GLU A   6      36.256  -1.138  13.157  0.00  0.00    +0.041 C 
BRANCH  48  49
ATOM     49  CG  GLU A   6      35.960   0.327  12.795  0.00  0.00    +0.116 C 
BRANCH  49  50
ATOM     50  CD  GLU A   6      37.009   0.940  11.887  0.00  0.00    +0.365 C 
ATOM     51  OE2 GLU A   6      37.607   1.970  12.273  0.00  0.00    -0.246 OA
ATOM     52  OE1 GLU A   6      37.235   0.399  10.783  0.00  0.00    -0.246 OA
ENDBRANCH  49  50
ENDBRANCH  48  49
ENDBRANCH  36  48
ENDBRANCH  34  36
ENDBRANCH  31  32
BRANCH  31  53
ATOM     53  CB  ILE A   5      41.357   0.810  12.394  0.00  0.00    +0.027 C 
ATOM     54  CG2 ILE A   5      41.262   1.710  13.626  0.00  0.00    +0.002 C 
BRANCH  53  55
ATOM     55  CG1 ILE A   5      42.749   0.935  11.758  0.00  0.00    +0.002 C 
ATOM     56  CD1 ILE A   5      43.144   2.347  11.363  0.00  0.00    +0.000 C 
ENDBRANCH  53  55
ENDBRANCH  31  53
ENDBRANCH   3  31
TORSDOF 24
REMARK  Name = ../refined-set-2016/2c94/2c94_pocket.pdb
REMARK  210 active torsions:
REMARK  status: ('A' for Active; 'I' for Inactive)
REMARK    1  A    between atoms: _1  and  _3
REMARK    2  A    between atoms: _3  and  _4
REMARK    3  A    between atoms: _7  and  _9
REMARK    4  A    between atoms: _9  and  _10
REMARK    5  A    between atoms: _9  and  _12
REMARK    6  A    between atoms: _12  and  _13
REMARK    7  A    between atoms: _15  and  _17
REMARK    8  A    between atoms: _17  and  _18
REMARK    9  A    between atoms: _17  and  _20
REMARK   10  A    between atoms: _20  and  _21
REMARK   11  A    between atoms: _23  and  _25
REMARK   12  A    between atoms: _25  and  _26
REMARK   13  A    between atoms: _25  and  _28
REMARK   14  A    between atoms: _28  and  _29
REMARK   15  A    between atoms: _41  and  _42
REMARK   16  A    between atoms: _41  and  _44
REMARK   17  A    between atoms: _44  and  _45
REMARK   18  A    between atoms: _50  and  _52
REMARK   19  A    between atoms: _52  and  _53
REMARK   20  A    between atoms: _52  and  _55
REMARK   21  A    between atoms: _57  and  _59
REMARK   22  A    between atoms: _59  and  _60
REMARK   23  A    between atoms: _59  and  _62
REMARK   24  A    between atoms: _65  and  _67
REMARK   25  A    between atoms: _67  and  _68
REMARK   26  A    between atoms: _67  and  _70
REMARK   27  A    between atoms: _70  and  _71
REMARK   28  A    between atoms: _74  and  _76
REMARK   29  A    between atoms: _76  and  _77
REMARK   30  A    between atoms: _79  and  _81
REMARK   31  A    between atoms: _81  and  _82
REMARK   32  A    between atoms: _85  and  _87
REMARK   33  A    between atoms: _87  and  _88
REMARK   34  A    between atoms: _87  and  _90
REMARK   35  A    between atoms: _90  and  _91
REMARK   36  A    between atoms: _94  and  _96
REMARK   37  A    between atoms: _96  and  _97
REMARK   38  A    between atoms: _96  and  _99
REMARK   39  A    between atoms: _99  and  _100
REMARK   40  A    between atoms: _100  and  _101
REMARK   41  A    between atoms: _104  and  _106
REMARK   42  A    between atoms: _106  and  _107
REMARK   43  A    between atoms: _106  and  _109
REMARK   44  A    between atoms: _109  and  _110
REMARK   45  A    between atoms: _113  and  _115
REMARK   46  A    between atoms: _115  and  _116
REMARK   47  A    between atoms: _115  and  _118
REMARK   48  A    between atoms: _118  and  _119
REMARK   49  A    between atoms: _122  and  _124
REMARK   50  A    between atoms: _124  and  _125
REMARK   51  A    between atoms: _127  and  _129
REMARK   52  A    between atoms: _129  and  _130
REMARK   53  A    between atoms: _129  and  _132
REMARK   54  A    between atoms: _135  and  _137
REMARK   55  A    between atoms: _137  and  _138
REMARK   56  A    between atoms: _137  and  _140
REMARK   57  A    between atoms: _143  and  _145
REMARK   58  A    between atoms: _145  and  _146
REMARK   59  A    between atoms: _145  and  _148
REMARK   60  A    between atoms: _148  and  _149
REMARK   61  A    between atoms: _152  and  _154
REMARK   62  A    between atoms: _154  and  _155
REMARK   63  A    between atoms: _154  and  _157
REMARK   64  A    between atoms: _157  and  _158
REMARK   65  A    between atoms: _158  and  _159
REMARK   66  A    between atoms: _159  and  _160
REMARK   67  A    between atoms: _169  and  _171
REMARK   68  A    between atoms: _171  and  _172
REMARK   69  A    between atoms: _174  and  _176
REMARK   70  A    between atoms: _176  and  _177
REMARK   71  A    between atoms: _176  and  _179
REMARK   72  A    between atoms: _179  and  _180
REMARK   73  A    between atoms: _180  and  _181
REMARK   74  A    between atoms: _186  and  _188
REMARK   75  A    between atoms: _188  and  _189
REMARK   76  A    between atoms: _188  and  _191
REMARK   77  A    between atoms: _191  and  _192
REMARK   78  A    between atoms: _196  and  _197
REMARK   79  A    between atoms: _202  and  _204
REMARK   80  A    between atoms: _204  and  _205
REMARK   81  A    between atoms: _204  and  _207
REMARK   82  A    between atoms: _207  and  _208
REMARK   83  A    between atoms: _213  and  _215
REMARK   84  A    between atoms: _215  and  _216
REMARK   85  A    between atoms: _215  and  _218
REMARK   86  A    between atoms: _218  and  _219
REMARK   87  A    between atoms: _225  and  _227
REMARK   88  A    between atoms: _227  and  _228
REMARK   89  A    between atoms: _227  and  _230
REMARK   90  A    between atoms: _230  and  _231
REMARK   91  A    between atoms: _234  and  _236
REMARK   92  A    between atoms: _236  and  _237
REMARK   93  A    between atoms: _236  and  _239
REMARK   94  A    between atoms: _239  and  _240
REMARK   95  A    between atoms: _245  and  _246
REMARK   96  A    between atoms: _248  and  _250
REMARK   97  A    between atoms: _250  and  _251
REMARK   98  A    between atoms: _250  and  _253
REMARK   99  A    between atoms: _256  and  _258
REMARK  100  A    between atoms: _258  and  _259
REMARK  101  A    between atoms: _258  and  _261
REMARK  102  A    between atoms: _263  and  _265
REMARK  103  A    between atoms: _265  and  _266
REMARK  104  A    between atoms: _269  and  _271
REMARK  105  A    between atoms: _271  and  _272
REMARK  106  A    between atoms: _271  and  _274
REMARK  107  A    between atoms: _277  and  _279
REMARK  108  A    between atoms: _279  and  _280
REMARK  109  A    between atoms: _279  and  _282
REMARK  110  A    between atoms: _285  and  _287
REMARK  111  A    between atoms: _287  and  _288
REMARK  112  A    between atoms: _287  and  _290
REMARK  113  A    between atoms: _290  and  _291
REMARK  114  A    between atoms: _294  and  _296
REMARK  115  A    between atoms: _296  and  _297
REMARK  116  A    between atoms: _296  and  _299
REMARK  117  A    between atoms: _299  and  _300
REMARK  118  A    between atoms: _303  and  _305
REMARK  119  A    between atoms: _305  and  _306
REMARK  120  A    between atoms: _305  and  _308
REMARK  121  A    between atoms: _311  and  _313
REMARK  122  A    between atoms: _313  and  _314
REMARK  123  A    between atoms: _313  and  _316
REMARK  124  A    between atoms: _319  and  _321
REMARK  125  A    between atoms: _321  and  _322
REMARK  126  A    between atoms: _325  and  _327
REMARK  127  A    between atoms: _327  and  _328
REMARK  128  A    between atoms: _327  and  _330
REMARK  129  A    between atoms: _330  and  _331
REMARK  130  A    between atoms: _335  and  _336
REMARK  131  A    between atoms: _341  and  _343
REMARK  132  A    between atoms: _343  and  _344
REMARK  133  A    between atoms: _343  and  _346
REMARK  134  A    between atoms: _346  and  _347
REMARK  135  A    between atoms: _350  and  _352
REMARK  136  A    between atoms: _352  and  _353
REMARK  137  A    between atoms: _356  and  _358
REMARK  138  A    between atoms: _358  and  _359
REMARK  139  A    between atoms: _358  and  _361
REMARK  140  A    between atoms: _361  and  _362
REMARK  141  A    between atoms: _367  and  _369
REMARK  142  A    between atoms: _369  and  _370
REMARK  143  A    between atoms: _372  and  _374
REMARK  144  A    between atoms: _374  and  _375
REMARK  145  A    between atoms: _374  and  _377
REMARK  146  A    between atoms: _380  and  _382
REMARK  147  A    between atoms: _382  and  _383
REMARK  148  A    between atoms: _382  and  _385
REMARK  149  A    between atoms: _385  and  _386
REMARK  150  A    between atoms: _389  and  _391
REMARK  151  A    between atoms: _391  and  _392
REMARK  152  A    between atoms: _391  and  _394
REMARK  153  A    between atoms: _394  and  _395
REMARK  154  A    between atoms: _398  and  _400
REMARK  155  A    between atoms: _400  and  _401
REMARK  156  A    between atoms: _400  and  _403
REMARK  157  A    between atoms: _403  and  _404
REMARK  158  A    between atoms: _407  and  _409
REMARK  159  A    between atoms: _409  and  _410
REMARK  160  A    between atoms: _409  and  _412
REMARK  161  A    between atoms: _412  and  _413
REMARK  162  A    between atoms: _418  and  _420
REMARK  163  A    between atoms: _420  and  _421
REMARK  164  A    between atoms: _420  and  _423
REMARK  165  A    between atoms: _423  and  _424
REMARK  166  A    between atoms: _424  and  _425
REMARK  167  A    between atoms: _430  and  _432
REMARK  168  A    between atoms: _432  and  _433
REMARK  169  A    between atoms: _432  and  _435
REMARK  170  A    between atoms: _435  and  _436
REMARK  171  A    between atoms: _436  and  _437
REMARK  172  A    between atoms: _437  and  _438
REMARK  173  A    between atoms: _447  and  _449
REMARK  174  A    between atoms: _449  and  _450
REMARK  175  A    between atoms: _449  and  _452
REMARK  176  A    between atoms: _452  and  _453
REMARK  177  A    between atoms: _453  and  _454
REMARK  178  A    between atoms: _457  and  _459
REMARK  179  A    between atoms: _459  and  _460
REMARK  180  A    between atoms: _459  and  _462
REMARK  181  A    between atoms: _462  and  _463
REMARK  182  A    between atoms: _463  and  _464
REMARK  183  A    between atoms: _464  and  _465
REMARK  184  A    between atoms: _465  and  _466
REMARK  185  A    between atoms: _470  and  _472
REMARK  186  A    between atoms: _472  and  _473
REMARK  187  A    between atoms: _475  and  _477
REMARK  188  A    between atoms: _477  and  _478
REMARK  189  A    between atoms: _481  and  _483
REMARK  190  A    between atoms: _483  and  _484
REMARK  191  A    between atoms: _483  and  _486
REMARK  192  A    between atoms: _486  and  _487
REMARK  193  A    between atoms: _487  and  _488
REMARK  194  A    between atoms: _493  and  _495
REMARK  195  A    between atoms: _495  and  _496
REMARK  196  A    between atoms: _499  and  _501
REMARK  197  A    between atoms: _501  and  _502
REMARK  198  A    between atoms: _501  and  _504
REMARK  199  A    between atoms: _504  and  _505
REMARK  200  A    between atoms: _508  and  _510
REMARK  201  A    between atoms: _510  and  _511
REMARK  202  A    between atoms: _510  and  _513
REMARK  203  A    between atoms: _516  and  _518
REMARK  204  A    between atoms: _518  and  _519
REMARK  205  A    between atoms: _522  and  _524
REMARK  206  A    between atoms: _524  and  _525
REMARK  207  A    between atoms: _528  and  _530
REMARK  208  A    between atoms: _530  and  _531
REMARK  209  A    between atoms: _530  and  _533
REMARK  210  A    between atoms: _533  and  _534
REMARK                            x       y       z     vdW  Elec       q    Type
REMARK                         _______ _______ _______ _____ _____    ______ ____
ROOT
ATOM      1  C   GLN A   8      52.003   4.625  -1.045  0.00  0.00    +0.241 C 
ATOM      2  N   THR A   9      51.235   4.609   0.043  0.00  0.00    -0.295 N 
ATOM      3  H   THR A   9      50.415   3.970   0.073  0.00  0.00    +0.150 HD
ATOM      4  O   GLN A   8      53.032   5.297  -1.135  0.00  0.00    -0.273 OA
ENDROOT
BRANCH   1   5
ATOM      5  CA  GLN A   8      51.540   3.776  -2.224  0.00  0.00    +0.149 C 
BRANCH   5   8
ATOM      6  C   GLY A   7      50.820   1.530  -1.586  0.00  0.00    +0.243 C 
ATOM      7  O   GLY A   7      51.975   1.118  -1.445  0.00  0.00    -0.273 OA
ATOM      8  N   GLN A   8      50.519   2.796  -1.860  0.00  0.00    -0.297 N 
ATOM      9  H   GLN A   8      49.525   3.098  -1.814  0.00  0.00    +0.150 HD
BRANCH   6  10
ATOM     10  CA  GLY A   7      49.647   0.595  -1.405  0.00  0.00    +0.176 C 
BRANCH  10  12
ATOM     11  C   ARG A   6      49.817  -1.521  -0.226  0.00  0.00    +0.241 C 
ATOM     12  N   GLY A   7      49.828  -0.196  -0.198  0.00  0.00    -0.295 N 
ATOM     13  H   GLY A   7      49.970   0.291   0.710  0.00  0.00    +0.150 HD
ATOM     14  O   ARG A   6      49.562  -2.167  -1.240  0.00  0.00    -0.273 OA
BRANCH  11  15
ATOM     15  CA  ARG A   6      50.134  -2.229   1.079  0.00  0.00    +0.149 C 
BRANCH  15  17
ATOM     16  C   ILE A   5      47.998  -3.386   1.267  0.00  0.00    +0.241 C 
ATOM     17  N   ARG A   6      49.326  -3.440   1.197  0.00  0.00    -0.297 N 
ATOM     18  H   ARG A   6      49.799  -4.366   1.227  0.00  0.00    +0.150 HD
ATOM     19  O   ILE A   5      47.353  -2.336   1.172  0.00  0.00    -0.273 OA
BRANCH  16  20
ATOM     20  CA  ILE A   5      47.278  -4.709   1.478  0.00  0.00    +0.149 C 
BRANCH  20  23
ATOM     21  C   VAL A   4      46.449  -5.369   3.664  0.00  0.00    +0.241 C 
ATOM     22  O   VAL A   4      47.338  -6.214   3.799  0.00  0.00    -0.273 OA
ATOM     23  N   ILE A   5      46.355  -4.584   2.597  0.00  0.00    -0.297 N 
ATOM     24  H   ILE A   5      45.605  -3.864   2.560  0.00  0.00    +0.150 HD
BRANCH  21  25
ATOM     25  CA  VAL A   4      45.366  -5.190   4.732  0.00  0.00    +0.149 C 
BRANCH  25  27
ATOM     26  C   VAL A   3      43.378  -6.608   4.750  0.00  0.00    +0.241 C 
ATOM     27  N   VAL A   4      44.690  -6.470   4.932  0.00  0.00    -0.297 N 
ATOM     28  H   VAL A   4      45.249  -7.297   5.225  0.00  0.00    +0.150 HD
ATOM     29  O   VAL A   3      42.622  -5.661   4.531  0.00  0.00    -0.273 OA
BRANCH  26  30
ATOM     30  CA  VAL A   3      42.826  -8.022   4.848  0.00  0.00    +0.149 C 
BRANCH  30  33
ATOM     31  C   GLY A   2      41.729  -9.118   6.733  0.00  0.00    +0.243 C 
ATOM     32  O   GLY A   2      42.493 -10.085   6.703  0.00  0.00    -0.273 OA
ATOM     33  N   VAL A   3      41.826  -8.078   5.911  0.00  0.00    -0.297 N 
ATOM     34  H   VAL A   3      41.170  -7.280   6.028  0.00  0.00    +0.150 HD
BRANCH  31  35
ATOM     35  CA  GLY A   2      40.592  -9.058   7.730  0.00  0.00    +0.176 C 
BRANCH  35  38
ATOM     36  C   LEU A   1      39.655 -10.372   9.544  0.00  0.00    +0.238 C 
ATOM     37  O   LEU A   1      38.786  -9.532   9.761  0.00  0.00    -0.274 OA
ATOM     38  N   GLY A   2      40.587 -10.220   8.609  0.00  0.00    -0.296 N 
ATOM     39  H   GLY A   2      41.326 -10.944   8.503  0.00  0.00    +0.150 HD
BRANCH  36  40
ATOM     40  CA  LEU A   1      39.692 -11.671  10.326  0.00  0.00    +0.145 C 
BRANCH  40  41
ATOM     41  N   LEU A   1      39.451 -11.438  11.751  0.00  0.00    -0.238 NA
ATOM     42  H   LEU A   1      38.592 -10.931  12.045  0.00  0.00    +0.142 HD
ENDBRANCH  40  41
BRANCH  40  43
ATOM     43  CB  LEU A   1      38.628 -12.625   9.750  0.00  0.00    +0.026 C 
BRANCH  43  44
ATOM     44  CG  LEU A   1      38.472 -14.023  10.369  0.00  0.00    +0.002 C 
ATOM     45  CD2 LEU A   1      39.732 -14.869  10.187  0.00  0.00    +0.000 C 
ATOM     46  CD1 LEU A   1      37.267 -14.706   9.717  0.00  0.00    +0.000 C 
ENDBRANCH  43  44
ENDBRANCH  40  43
ENDBRANCH  36  40
ENDBRANCH  35  38
ENDBRANCH  31  35
ENDBRANCH  30  33
BRANCH  30  47
ATOM     47  CB  VAL A   3      42.216  -8.408   3.478  0.00  0.00    +0.027 C 
ATOM     48  CG2 VAL A   3      41.426  -9.713   3.586  0.00  0.00    +0.002 C 
ATOM     49  CG1 VAL A   3      43.305  -8.520   2.412  0.00  0.00    +0.002 C 
ENDBRANCH  30  47
ENDBRANCH  26  30
ENDBRANCH  25  27
BRANCH  25  50
ATOM     50  CB  VAL A   4      45.968  -4.623   6.046  0.00  0.00    +0.027 C 
ATOM     51  CG2 VAL A   4      44.976  -4.766   7.220  0.00  0.00    +0.002 C 
ATOM     52  CG1 VAL A   4      46.350  -3.171   5.866  0.00  0.00    +0.002 C 
ENDBRANCH  25  50
ENDBRANCH  21  25
ENDBRANCH  20  23
BRANCH  20  53
ATOM     53  CB  ILE A   5      46.535  -5.119   0.189  0.00  0.00    +0.027 C 
ATOM     54  CG2 ILE A   5      47.508  -5.195  -0.999  0.00  0.00    +0.002 C 
BRANCH  53  55
ATOM     55  CG1 ILE A   5      45.795  -6.451   0.402  0.00  0.00    +0.002 C 
ATOM     56  CD1 ILE A   5      44.760  -6.754  -0.663  0.00  0.00    +0.000 C 
ENDBRANCH  53  55
ENDBRANCH  20  53
ENDBRANCH  16  20
ENDBRANCH  15  17
BRANCH  15  57
ATOM     57  CB  ARG A   6      51.628  -2.561   1.153  0.00  0.00    +0.033 C 
BRANCH  57  58
ATOM     58  CG  ARG A   6      52.534  -1.332   1.273  0.00  0.00    +0.045 C 
BRANCH  58  59
ATOM     59  CD  ARG A   6      53.994  -1.665   1.027  0.00  0.00    +0.174 C 
BRANCH  59  60
ATOM     60  NE  ARG A   6      54.507  -2.690   1.936  0.00  0.00    -0.265 N 
ATOM     61  CZ  ARG A   6      54.861  -2.479   3.204  0.00  0.00    +0.342 C 
ATOM     62  NH2 ARG A   6      55.322  -3.487   3.933  0.00  0.00    -0.292 N 
ATOM     63 HH21 ARG A   6      55.600  -3.329   4.923  0.00  0.00    +0.255 HD
ATOM     64 HH22 ARG A   6      55.406  -4.436   3.515  0.00  0.00    +0.255 HD
ATOM     65  NH1 ARG A   6      54.749  -1.272   3.754  0.00  0.00    -0.292 N 
ATOM     66 HH11 ARG A   6      55.029  -1.124   4.744  0.00  0.00    +0.255 HD
ATOM     67 HH12 ARG A   6      54.381  -0.477   3.193  0.00  0.00    +0.255 HD
ATOM     68  HE  ARG A   6      54.603  -3.657   1.565  0.00  0.00    +0.259 HD
ENDBRANCH  59  60
ENDBRANCH  58  59
ENDBRANCH  57  58
ENDBRANCH  15  57
ENDBRANCH  11  15
ENDBRANCH  10  12
ENDBRANCH   6  10
ENDBRANCH   5   8
BRANCH   5  69
ATOM     69  CB  GLN A   8      51.021   4.692  -3.341  0.00  0.00    +0.039 C 
BRANCH  69  70
ATOM     70  CG  GLN A   8      50.567   3.970  -4.604  0.00  0.00    +0.087 C 
BRANCH  70  71
ATOM     71  CD  GLN A   8      51.714   3.294  -5.337  0.00  0.00    +0.219 C 
ATOM     72  OE1 GLN A   8      52.123   2.182  -4.991  0.00  0.00    -0.275 OA
ATOM     73  NE2 GLN A   8      52.232   3.961  -6.363  0.00  0.00    -0.329 N 
ATOM     74 HE21 GLN A   8      51.855   4.896  -6.619  0.00  0.00    +0.145 HD
ATOM     75 HE22 GLN A   8      53.014   3.548  -6.910  0.00  0.00    +0.145 HD
ENDBRANCH  70  71
ENDBRANCH  69  70
ENDBRANCH   5  69
ENDBRANCH   1   5
BRANCH   2  76
ATOM     76  CA  THR A   9      51.513   5.467   1.199  0.00  0.00    +0.176 C 
BRANCH  76  77
ATOM     77  C   THR A   9      51.883   4.632   2.432  0.00  0.00    +0.246 C 
ATOM     78  N   PRO A  10      52.435   5.286   3.477  0.00  0.00    -0.272 N 
ATOM     79  CA  PRO A  10      52.704   4.632   4.762  0.00  0.00    +0.152 C 
ATOM     80  CB  PRO A  10      53.376   5.740   5.585  0.00  0.00    +0.031 C 
ATOM     81  CG  PRO A  10      53.905   6.686   4.593  0.00  0.00    +0.024 C 
ATOM     82  CD  PRO A  10      52.905   6.681   3.485  0.00  0.00    +0.094 C 
ATOM     83  O   THR A   9      51.675   3.412   2.441  0.00  0.00    -0.273 OA
BRANCH  79  84
ATOM     84  C   PRO A  10      51.472   4.131   5.516  0.00  0.00    +0.241 C 
ATOM     85  O   PRO A  10      51.637   3.461   6.532  0.00  0.00    -0.273 OA
ATOM     86  N   HIS A  11      50.262   4.445   5.034  0.00  0.00    -0.297 N 
ATOM     87  H   HIS A  11      50.204   5.007   4.161  0.00  0.00    +0.150 HD
BRANCH  86  88
ATOM     88  CA  HIS A  11      49.005   4.025   5.692  0.00  0.00    +0.155 C 
BRANCH  88  89
ATOM     89  C   HIS A  11      48.952   2.565   6.130  0.00  0.00    +0.241 C 
ATOM     90  O   HIS A  11      48.472   2.262   7.228  0.00  0.00    -0.273 OA
ATOM     91  N   PHE A  12      49.385   1.670   5.239  0.00  0.00    -0.297 N 
ATOM     92  H   PHE A  12      49.664   2.004   4.295  0.00  0.00    +0.150 HD
BRANCH  91  93
ATOM     93  CA  PHE A  12      49.484   0.242   5.532  0.00  0.00    +0.153 C 
BRANCH  93  94
ATOM     94  C   PHE A  12      50.147  -0.014   6.890  0.00  0.00    +0.241 C 
ATOM     95  O   PHE A  12      49.586  -0.722   7.734  0.00  0.00    -0.273 OA
ATOM     96  N   ASP A  13      51.334   0.568   7.082  0.00  0.00    -0.297 N 
ATOM     97  H   ASP A  13      51.708   1.184   6.332  0.00  0.00    +0.150 HD
BRANCH  96  98
ATOM     98  CA  ASP A  13      52.139   0.383   8.299  0.00  0.00    +0.160 C 
BRANCH  98  99
ATOM     99  C   ASP A  13      51.332   0.690   9.560  0.00  0.00    +0.241 C 
ATOM    100  O   ASP A  13      51.364  -0.069  10.535  0.00  0.00    -0.273 OA
ATOM    101  N   TYR A  14      50.599   1.801   9.525  0.00  0.00    -0.297 N 
ATOM    102  H   TYR A  14      50.533   2.339   8.637  0.00  0.00    +0.150 HD
BRANCH 101 103
ATOM    103  CA  TYR A  14      49.888   2.280  10.700  0.00  0.00    +0.153 C 
BRANCH 103 104
ATOM    104  C   TYR A  14      48.598   1.519  10.959  0.00  0.00    +0.241 C 
ATOM    105  O   TYR A  14      48.255   1.277  12.117  0.00  0.00    -0.273 OA
ATOM    106  N   VAL A  15      47.920   1.093   9.893  0.00  0.00    -0.297 N 
ATOM    107  H   VAL A  15      48.208   1.406   8.944  0.00  0.00    +0.150 HD
BRANCH 106 108
ATOM    108  CA  VAL A  15      46.775   0.190  10.039  0.00  0.00    +0.149 C 
BRANCH 108 109
ATOM    109  C   VAL A  15      47.219  -1.092  10.729  0.00  0.00    +0.241 C 
ATOM    110  O   VAL A  15      46.600  -1.517  11.708  0.00  0.00    -0.273 OA
ATOM    111  N   CYS A  16      48.310  -1.684  10.245  0.00  0.00    -0.297 N 
ATOM    112  H   CYS A  16      48.807  -1.254   9.439  0.00  0.00    +0.150 HD
BRANCH 111 113
ATOM    113  CA  CYS A  16      48.825  -2.928  10.824  0.00  0.00    +0.149 C 
BRANCH 113 114
ATOM    114  CB  CYS A  16      49.926  -3.513   9.956  0.00  0.00    +0.096 C 
ATOM    115  SG  CYS A  16      49.378  -4.059   8.309  0.00  0.00    -0.080 S 
ENDBRANCH 113 114
BRANCH 113 116
ATOM    116  C   CYS A  16      49.310  -2.748  12.274  0.00  0.00    +0.228 C 
ATOM    117  O   CYS A  16      49.032  -3.594  13.122  0.00  0.00    -0.286 OA
ENDBRANCH 113 116
ENDBRANCH 111 113
ENDBRANCH 108 109
BRANCH 108 118
ATOM    118  CB  VAL A  15      46.059  -0.120   8.692  0.00  0.00    +0.027 C 
ATOM    119  CG2 VAL A  15      45.052  -1.257   8.855  0.00  0.00    +0.002 C 
ATOM    120  CG1 VAL A  15      45.351   1.121   8.170  0.00  0.00    +0.002 C 
ENDBRANCH 108 118
ENDBRANCH 106 108
ENDBRANCH 103 104
BRANCH 103 121
ATOM    121  CB  TYR A  14      49.710   3.800  10.654  0.00  0.00    +0.055 C 
BRANCH 121 122
ATOM    122  CG  TYR A  14      51.061   4.465  10.550  0.00  0.00    -0.020 A 
ATOM    123  CD2 TYR A  14      51.952   4.434  11.625  0.00  0.00    -0.001 A 
ATOM    124  CE2 TYR A  14      53.216   4.999  11.526  0.00  0.00    +0.036 A 
ATOM    125  CZ  TYR A  14      53.606   5.585  10.333  0.00  0.00    +0.134 A 
ATOM    126  CE1 TYR A  14      52.744   5.624   9.249  0.00  0.00    +0.036 A 
ATOM    127  CD1 TYR A  14      51.482   5.050   9.358  0.00  0.00    -0.001 A 
BRANCH 125 128
ATOM    128  OH  TYR A  14      54.847   6.147  10.236  0.00  0.00    -0.506 OA
ATOM    129  HH  TYR A  14      55.353   5.704   9.510  0.00  0.00    +0.292 HD
ENDBRANCH 125 128
ENDBRANCH 121 122
ENDBRANCH 103 121
ENDBRANCH 101 103
ENDBRANCH  98  99
BRANCH  98 130
ATOM    130  CB  ASP A  13      53.393   1.276   8.267  0.00  0.00    +0.143 C 
BRANCH 130 131
ATOM    131  CG  ASP A  13      54.294   1.001   7.067  0.00  0.00    +0.367 C 
ATOM    132  OD2 ASP A  13      54.466  -0.178   6.677  0.00  0.00    -0.246 OA
ATOM    133  OD1 ASP A  13      54.849   1.976   6.517  0.00  0.00    -0.246 OA
ENDBRANCH 130 131
ENDBRANCH  98 130
ENDBRANCH  96  98
ENDBRANCH  93  94
BRANCH  93 134
ATOM    134  CB  PHE A  12      50.262  -0.470   4.415  0.00  0.00    +0.055 C 
BRANCH 134 135
ATOM    135  CG  PHE A  12      50.556  -1.926   4.697  0.00  0.00    -0.020 A 
ATOM    136  CD2 PHE A  12      51.787  -2.311   5.222  0.00  0.00    -0.004 A 
ATOM    137  CE2 PHE A  12      52.069  -3.653   5.480  0.00  0.00    -0.000 A 
ATOM    138  CZ  PHE A  12      51.121  -4.623   5.196  0.00  0.00    -0.000 A 
ATOM    139  CE1 PHE A  12      49.895  -4.258   4.654  0.00  0.00    -0.000 A 
ATOM    140  CD1 PHE A  12      49.616  -2.913   4.408  0.00  0.00    -0.004 A 
ENDBRANCH 134 135
ENDBRANCH  93 134
ENDBRANCH  91  93
ENDBRANCH  88  89
BRANCH  88 141
ATOM    141  CB  HIS A  11      47.802   4.264   4.782  0.00  0.00    +0.076 C 
BRANCH 141 142
ATOM    142  CG  HIS A  11      47.167   5.604   4.951  0.00  0.00    +0.082 A 
ATOM    143  ND1 HIS A  11      46.629   6.025   6.149  0.00  0.00    -0.227 NA
ATOM    144  CE1 HIS A  11      46.122   7.238   5.993  0.00  0.00    +0.199 A 
ATOM    145  NE2 HIS A  11      46.306   7.613   4.739  0.00  0.00    -0.221 NA
ATOM    146  CD2 HIS A  11      46.946   6.604   4.063  0.00  0.00    +0.115 A 
ENDBRANCH 141 142
ENDBRANCH  88 141
ENDBRANCH  86  88
ENDBRANCH  79  84
ENDBRANCH  76  77
BRANCH  76 147
ATOM    147  CB  THR A   9      50.307   6.388   1.555  0.00  0.00    +0.137 C 
ATOM    148  CG2 THR A   9      49.652   6.984   0.294  0.00  0.00    +0.034 C 
BRANCH 147 149
ATOM    149  OG1 THR A   9      49.342   5.645   2.310  0.00  0.00    -0.382 OA
ATOM    150  HG1 THR A   9      49.023   4.878   1.772  0.00  0.00    +0.210 HD
ENDBRANCH 147 149
ENDBRANCH  76 147
ENDBRANCH   2  76
TORSDOF 57
REMARK  Name = ../refined-set-2016/2c94/2c94_pocket.pdb
REMARK  210 active torsions:
REMARK  status: ('A' for Active; 'I' for Inactive)
REMARK    1  A    between atoms: _1  and  _3
REMARK    2  A    between atoms: _3  and  _4
REMARK    3  A    between atoms: _7  and  _9
REMARK    4  A    between atoms: _9  and  _10
REMARK    5  A    between atoms: _9  and  _12
REMARK    6  A    between atoms: _12  and  _13
REMARK    7  A    between atoms: _15  and  _17
REMARK    8  A    between atoms: _17  and  _18
REMARK    9  A    between atoms: _17  and  _20
REMARK   10  A    between atoms: _20  and  _21
REMARK   11  A    between atoms: _23  and  _25
REMARK   12  A    between atoms: _25  and  _26
REMARK   13  A    between atoms: _25  and  _28
REMARK   14  A    between atoms: _28  and  _29
REMARK   15  A    between atoms: _41  and  _42
REMARK   16  A    between atoms: _41  and  _44
REMARK   17  A    between atoms: _44  and  _45
REMARK   18  A    between atoms: _50  and  _52
REMARK   19  A    between atoms: _52  and  _53
REMARK   20  A    between atoms: _52  and  _55
REMARK   21  A    between atoms: _57  and  _59
REMARK   22  A    between atoms: _59  and  _60
REMARK   23  A    between atoms: _59  and  _62
REMARK   24  A    between atoms: _65  and  _67
REMARK   25  A    between atoms: _67  and  _68
REMARK   26  A    between atoms: _67  and  _70
REMARK   27  A    between atoms: _70  and  _71
REMARK   28  A    between atoms: _74  and  _76
REMARK   29  A    between atoms: _76  and  _77
REMARK   30  A    between atoms: _79  and  _81
REMARK   31  A    between atoms: _81  and  _82
REMARK   32  A    between atoms: _85  and  _87
REMARK   33  A    between atoms: _87  and  _88
REMARK   34  A    between atoms: _87  and  _90
REMARK   35  A    between atoms: _90  and  _91
REMARK   36  A    between atoms: _94  and  _96
REMARK   37  A    between atoms: _96  and  _97
REMARK   38  A    between atoms: _96  and  _99
REMARK   39  A    between atoms: _99  and  _100
REMARK   40  A    between atoms: _100  and  _101
REMARK   41  A    between atoms: _104  and  _106
REMARK   42  A    between atoms: _106  and  _107
REMARK   43  A    between atoms: _106  and  _109
REMARK   44  A    between atoms: _109  and  _110
REMARK   45  A    between atoms: _113  and  _115
REMARK   46  A    between atoms: _115  and  _116
REMARK   47  A    between atoms: _115  and  _118
REMARK   48  A    between atoms: _118  and  _119
REMARK   49  A    between atoms: _122  and  _124
REMARK   50  A    between atoms: _124  and  _125
REMARK   51  A    between atoms: _127  and  _129
REMARK   52  A    between atoms: _129  and  _130
REMARK   53  A    between atoms: _129  and  _132
REMARK   54  A    between atoms: _135  and  _137
REMARK   55  A    between atoms: _137  and  _138
REMARK   56  A    between atoms: _137  and  _140
REMARK   57  A    between atoms: _143  and  _145
REMARK   58  A    between atoms: _145  and  _146
REMARK   59  A    between atoms: _145  and  _148
REMARK   60  A    between atoms: _148  and  _149
REMARK   61  A    between atoms: _152  and  _154
REMARK   62  A    between atoms: _154  and  _155
REMARK   63  A    between atoms: _154  and  _157
REMARK   64  A    between atoms: _157  and  _158
REMARK   65  A    between atoms: _158  and  _159
REMARK   66  A    between atoms: _159  and  _160
REMARK   67  A    between atoms: _169  and  _171
REMARK   68  A    between atoms: _171  and  _172
REMARK   69  A    between atoms: _174  and  _176
REMARK   70  A    between atoms: _176  and  _177
REMARK   71  A    between atoms: _176  and  _179
REMARK   72  A    between atoms: _179  and  _180
REMARK   73  A    between atoms: _180  and  _181
REMARK   74  A    between atoms: _186  and  _188
REMARK   75  A    between atoms: _188  and  _189
REMARK   76  A    between atoms: _188  and  _191
REMARK   77  A    between atoms: _191  and  _192
REMARK   78  A    between atoms: _196  and  _197
REMARK   79  A    between atoms: _202  and  _204
REMARK   80  A    between atoms: _204  and  _205
REMARK   81  A    between atoms: _204  and  _207
REMARK   82  A    between atoms: _207  and  _208
REMARK   83  A    between atoms: _213  and  _215
REMARK   84  A    between atoms: _215  and  _216
REMARK   85  A    between atoms: _215  and  _218
REMARK   86  A    between atoms: _218  and  _219
REMARK   87  A    between atoms: _225  and  _227
REMARK   88  A    between atoms: _227  and  _228
REMARK   89  A    between atoms: _227  and  _230
REMARK   90  A    between atoms: _230  and  _231
REMARK   91  A    between atoms: _234  and  _236
REMARK   92  A    between atoms: _236  and  _237
REMARK   93  A    between atoms: _236  and  _239
REMARK   94  A    between atoms: _239  and  _240
REMARK   95  A    between atoms: _245  and  _246
REMARK   96  A    between atoms: _248  and  _250
REMARK   97  A    between atoms: _250  and  _251
REMARK   98  A    between atoms: _250  and  _253
REMARK   99  A    between atoms: _256  and  _258
REMARK  100  A    between atoms: _258  and  _259
REMARK  101  A    between atoms: _258  and  _261
REMARK  102  A    between atoms: _263  and  _265
REMARK  103  A    between atoms: _265  and  _266
REMARK  104  A    between atoms: _269  and  _271
REMARK  105  A    between atoms: _271  and  _272
REMARK  106  A    between atoms: _271  and  _274
REMARK  107  A    between atoms: _277  and  _279
REMARK  108  A    between atoms: _279  and  _280
REMARK  109  A    between atoms: _279  and  _282
REMARK  110  A    between atoms: _285  and  _287
REMARK  111  A    between atoms: _287  and  _288
REMARK  112  A    between atoms: _287  and  _290
REMARK  113  A    between atoms: _290  and  _291
REMARK  114  A    between atoms: _294  and  _296
REMARK  115  A    between atoms: _296  and  _297
REMARK  116  A    between atoms: _296  and  _299
REMARK  117  A    between atoms: _299  and  _300
REMARK  118  A    between atoms: _303  and  _305
REMARK  119  A    between atoms: _305  and  _306
REMARK  120  A    between atoms: _305  and  _308
REMARK  121  A    between atoms: _311  and  _313
REMARK  122  A    between atoms: _313  and  _314
REMARK  123  A    between atoms: _313  and  _316
REMARK  124  A    between atoms: _319  and  _321
REMARK  125  A    between atoms: _321  and  _322
REMARK  126  A    between atoms: _325  and  _327
REMARK  127  A    between atoms: _327  and  _328
REMARK  128  A    between atoms: _327  and  _330
REMARK  129  A    between atoms: _330  and  _331
REMARK  130  A    between atoms: _335  and  _336
REMARK  131  A    between atoms: _341  and  _343
REMARK  132  A    between atoms: _343  and  _344
REMARK  133  A    between atoms: _343  and  _346
REMARK  134  A    between atoms: _346  and  _347
REMARK  135  A    between atoms: _350  and  _352
REMARK  136  A    between atoms: _352  and  _353
REMARK  137  A    between atoms: _356  and  _358
REMARK  138  A    between atoms: _358  and  _359
REMARK  139  A    between atoms: _358  and  _361
REMARK  140  A    between atoms: _361  and  _362
REMARK  141  A    between atoms: _367  and  _369
REMARK  142  A    between atoms: _369  and  _370
REMARK  143  A    between atoms: _372  and  _374
REMARK  144  A    between atoms: _374  and  _375
REMARK  145  A    between atoms: _374  and  _377
REMARK  146  A    between atoms: _380  and  _382
REMARK  147  A    between atoms: _382  and  _383
REMARK  148  A    between atoms: _382  and  _385
REMARK  149  A    between atoms: _385  and  _386
REMARK  150  A    between atoms: _389  and  _391
REMARK  151  A    between atoms: _391  and  _392
REMARK  152  A    between atoms: _391  and  _394
REMARK  153  A    between atoms: _394  and  _395
REMARK  154  A    between atoms: _398  and  _400
REMARK  155  A    between atoms: _400  and  _401
REMARK  156  A    between atoms: _400  and  _403
REMARK  157  A    between atoms: _403  and  _404
REMARK  158  A    between atoms: _407  and  _409
REMARK  159  A    between atoms: _409  and  _410
REMARK  160  A    between atoms: _409  and  _412
REMARK  161  A    between atoms: _412  and  _413
REMARK  162  A    between atoms: _418  and  _420
REMARK  163  A    between atoms: _420  and  _421
REMARK  164  A    between atoms: _420  and  _423
REMARK  165  A    between atoms: _423  and  _424
REMARK  166  A    between atoms: _424  and  _425
REMARK  167  A    between atoms: _430  and  _432
REMARK  168  A    between atoms: _432  and  _433
REMARK  169  A    between atoms: _432  and  _435
REMARK  170  A    between atoms: _435  and  _436
REMARK  171  A    between atoms: _436  and  _437
REMARK  172  A    between atoms: _437  and  _438
REMARK  173  A    between atoms: _447  and  _449
REMARK  174  A    between atoms: _449  and  _450
REMARK  175  A    between atoms: _449  and  _452
REMARK  176  A    between atoms: _452  and  _453
REMARK  177  A    between atoms: _453  and  _454
REMARK  178  A    between atoms: _457  and  _459
REMARK  179  A    between atoms: _459  and  _460
REMARK  180  A    between atoms: _459  and  _462
REMARK  181  A    between atoms: _462  and  _463
REMARK  182  A    between atoms: _463  and  _464
REMARK  183  A    between atoms: _464  and  _465
REMARK  184  A    between atoms: _465  and  _466
REMARK  185  A    between atoms: _470  and  _472
REMARK  186  A    between atoms: _472  and  _473
REMARK  187  A    between atoms: _475  and  _477
REMARK  188  A    between atoms: _477  and  _478
REMARK  189  A    between atoms: _481  and  _483
REMARK  190  A    between atoms: _483  and  _484
REMARK  191  A    between atoms: _483  and  _486
REMARK  192  A    between atoms: _486  and  _487
REMARK  193  A    between atoms: _487  and  _488
REMARK  194  A    between atoms: _493  and  _495
REMARK  195  A    between atoms: _495  and  _496
REMARK  196  A    between atoms: _499  and  _501
REMARK  197  A    between atoms: _501  and  _502
REMARK  198  A    between atoms: _501  and  _504
REMARK  199  A    between atoms: _504  and  _505
REMARK  200  A    between atoms: _508  and  _510
REMARK  201  A    between atoms: _510  and  _511
REMARK  202  A    between atoms: _510  and  _513
REMARK  203  A    between atoms: _516  and  _518
REMARK  204  A    between atoms: _518  and  _519
REMARK  205  A    between atoms: _522  and  _524
REMARK  206  A    between atoms: _524  and  _525
REMARK  207  A    between atoms: _528  and  _530
REMARK  208  A    between atoms: _530  and  _531
REMARK  209  A    between atoms: _530  and  _533
REMARK  210  A    between atoms: _533  and  _534
REMARK                            x       y       z     vdW  Elec       q    Type
REMARK                         _______ _______ _______ _____ _____    ______ ____
ROOT
ATOM      1  C   ALA A   1      46.341  -1.723  15.580  0.00  0.00    +0.238 C 
ATOM      2  O   ALA A   1      45.972  -2.003  16.734  0.00  0.00    -0.274 OA
ATOM      3  N   VAL A   2      46.235  -2.577  14.565  0.00  0.00    -0.298 N 
ATOM      4  H   VAL A   2      46.590  -2.307  13.626  0.00  0.00    +0.150 HD
ENDROOT
BRANCH   1   5
ATOM      5  CA  ALA A   1      46.966  -0.364  15.267  0.00  0.00    +0.145 C 
ATOM      6  CB  ALA A   1      45.946   0.559  14.584  0.00  0.00    +0.028 C 
BRANCH   5   7
ATOM      7  N   ALA A   1      48.176  -0.503  14.454  0.00  0.00    -0.238 NA
ATOM      8  H   ALA A   1      48.220  -0.030  13.529  0.00  0.00    +0.142 HD
ENDBRANCH   5   7
ENDBRANCH   1   5
BRANCH   3   9
ATOM      9  CA  VAL A   2      45.626  -3.889  14.757  0.00  0.00    +0.137 C 
BRANCH   9  10
ATOM     10  CB  VAL A   2      45.431  -4.650  13.425  0.00  0.00    +0.026 C 
ATOM     11  CG2 VAL A   2      44.785  -6.018  13.680  0.00  0.00    +0.002 C 
ATOM     12  CG1 VAL A   2      44.567  -3.845  12.468  0.00  0.00    +0.002 C 
ENDBRANCH   9  10
BRANCH   9  13
ATOM     13  C   VAL A   2      46.448  -4.726  15.740  0.00  0.00    +0.227 C 
ATOM     14  O   VAL A   2      45.898  -5.302  16.682  0.00  0.00    -0.286 OA
ENDBRANCH   9  13
ENDBRANCH   3   9
TORSDOF 5
REMARK  Name = ../refined-set-2016/2c94/2c94_pocket.pdb
REMARK  210 active torsions:
REMARK  status: ('A' for Active; 'I' for Inactive)
REMARK    1  A    between atoms: _1  and  _3
REMARK    2  A    between atoms: _3  and  _4
REMARK    3  A    between atoms: _7  and  _9
REMARK    4  A    between atoms: _9  and  _10
REMARK    5  A    between atoms: _9  and  _12
REMARK    6  A    between atoms: _12  and  _13
REMARK    7  A    between atoms: _15  and  _17
REMARK    8  A    between atoms: _17  and  _18
REMARK    9  A    between atoms: _17  and  _20
REMARK   10  A    between atoms: _20  and  _21
REMARK   11  A    between atoms: _23  and  _25
REMARK   12  A    between atoms: _25  and  _26
REMARK   13  A    between atoms: _25  and  _28
REMARK   14  A    between atoms: _28  and  _29
REMARK   15  A    between atoms: _41  and  _42
REMARK   16  A    between atoms: _41  and  _44
REMARK   17  A    between atoms: _44  and  _45
REMARK   18  A    between atoms: _50  and  _52
REMARK   19  A    between atoms: _52  and  _53
REMARK   20  A    between atoms: _52  and  _55
REMARK   21  A    between atoms: _57  and  _59
REMARK   22  A    between atoms: _59  and  _60
REMARK   23  A    between atoms: _59  and  _62
REMARK   24  A    between atoms: _65  and  _67
REMARK   25  A    between atoms: _67  and  _68
REMARK   26  A    between atoms: _67  and  _70
REMARK   27  A    between atoms: _70  and  _71
REMARK   28  A    between atoms: _74  and  _76
REMARK   29  A    between atoms: _76  and  _77
REMARK   30  A    between atoms: _79  and  _81
REMARK   31  A    between atoms: _81  and  _82
REMARK   32  A    between atoms: _85  and  _87
REMARK   33  A    between atoms: _87  and  _88
REMARK   34  A    between atoms: _87  and  _90
REMARK   35  A    between atoms: _90  and  _91
REMARK   36  A    between atoms: _94  and  _96
REMARK   37  A    between atoms: _96  and  _97
REMARK   38  A    between atoms: _96  and  _99
REMARK   39  A    between atoms: _99  and  _100
REMARK   40  A    between atoms: _100  and  _101
REMARK   41  A    between atoms: _104  and  _106
REMARK   42  A    between atoms: _106  and  _107
REMARK   43  A    between atoms: _106  and  _109
REMARK   44  A    between atoms: _109  and  _110
REMARK   45  A    between atoms: _113  and  _115
REMARK   46  A    between atoms: _115  and  _116
REMARK   47  A    between atoms: _115  and  _118
REMARK   48  A    between atoms: _118  and  _119
REMARK   49  A    between atoms: _122  and  _124
REMARK   50  A    between atoms: _124  and  _125
REMARK   51  A    between atoms: _127  and  _129
REMARK   52  A    between atoms: _129  and  _130
REMARK   53  A    between atoms: _129  and  _132
REMARK   54  A    between atoms: _135  and  _137
REMARK   55  A    between atoms: _137  and  _138
REMARK   56  A    between atoms: _137  and  _140
REMARK   57  A    between atoms: _143  and  _145
REMARK   58  A    between atoms: _145  and  _146
REMARK   59  A    between atoms: _145  and  _148
REMARK   60  A    between atoms: _148  and  _149
REMARK   61  A    between atoms: _152  and  _154
REMARK   62  A    between atoms: _154  and  _155
REMARK   63  A    between atoms: _154  and  _157
REMARK   64  A    between atoms: _157  and  _158
REMARK   65  A    between atoms: _158  and  _159
REMARK   66  A    between atoms: _159  and  _160
REMARK   67  A    between atoms: _169  and  _171
REMARK   68  A    between atoms: _171  and  _172
REMARK   69  A    between atoms: _174  and  _176
REMARK   70  A    between atoms: _176  and  _177
REMARK   71  A    between atoms: _176  and  _179
REMARK   72  A    between atoms: _179  and  _180
REMARK   73  A    between atoms: _180  and  _181
REMARK   74  A    between atoms: _186  and  _188
REMARK   75  A    between atoms: _188  and  _189
REMARK   76  A    between atoms: _188  and  _191
REMARK   77  A    between atoms: _191  and  _192
REMARK   78  A    between atoms: _196  and  _197
REMARK   79  A    between atoms: _202  and  _204
REMARK   80  A    between atoms: _204  and  _205
REMARK   81  A    between atoms: _204  and  _207
REMARK   82  A    between atoms: _207  and  _208
REMARK   83  A    between atoms: _213  and  _215
REMARK   84  A    between atoms: _215  and  _216
REMARK   85  A    between atoms: _215  and  _218
REMARK   86  A    between atoms: _218  and  _219
REMARK   87  A    between atoms: _225  and  _227
REMARK   88  A    between atoms: _227  and  _228
REMARK   89  A    between atoms: _227  and  _230
REMARK   90  A    between atoms: _230  and  _231
REMARK   91  A    between atoms: _234  and  _236
REMARK   92  A    between atoms: _236  and  _237
REMARK   93  A    between atoms: _236  and  _239
REMARK   94  A    between atoms: _239  and  _240
REMARK   95  A    between atoms: _245  and  _246
REMARK   96  A    between atoms: _248  and  _250
REMARK   97  A    between atoms: _250  and  _251
REMARK   98  A    between atoms: _250  and  _253
REMARK   99  A    between atoms: _256  and  _258
REMARK  100  A    between atoms: _258  and  _259
REMARK  101  A    between atoms: _258  and  _261
REMARK  102  A    between atoms: _263  and  _265
REMARK  103  A    between atoms: _265  and  _266
REMARK  104  A    between atoms: _269  and  _271
REMARK  105  A    between atoms: _271  and  _272
REMARK  106  A    between atoms: _271  and  _274
REMARK  107  A    between atoms: _277  and  _279
REMARK  108  A    between atoms: _279  and  _280
REMARK  109  A    between atoms: _279  and  _282
REMARK  110  A    between atoms: _285  and  _287
REMARK  111  A    between atoms: _287  and  _288
REMARK  112  A    between atoms: _287  and  _290
REMARK  113  A    between atoms: _290  and  _291
REMARK  114  A    between atoms: _294  and  _296
REMARK  115  A    between atoms: _296  and  _297
REMARK  116  A    between atoms: _296  and  _299
REMARK  117  A    between atoms: _299  and  _300
REMARK  118  A    between atoms: _303  and  _305
REMARK  119  A    between atoms: _305  and  _306
REMARK  120  A    between atoms: _305  and  _308
REMARK  121  A    between atoms: _311  and  _313
REMARK  122  A    between atoms: _313  and  _314
REMARK  123  A    between atoms: _313  and  _316
REMARK  124  A    between atoms: _319  and  _321
REMARK  125  A    between atoms: _321  and  _322
REMARK  126  A    between atoms: _325  and  _327
REMARK  127  A    between atoms: _327  and  _328
REMARK  128  A    between atoms: _327  and  _330
REMARK  129  A    between atoms: _330  and  _331
REMARK  130  A    between atoms: _335  and  _336
REMARK  131  A    between atoms: _341  and  _343
REMARK  132  A    between atoms: _343  and  _344
REMARK  133  A    between atoms: _343  and  _346
REMARK  134  A    between atoms: _346  and  _347
REMARK  135  A    between atoms: _350  and  _352
REMARK  136  A    between atoms: _352  and  _353
REMARK  137  A    between atoms: _356  and  _358
REMARK  138  A    between atoms: _358  and  _359
REMARK  139  A    between atoms: _358  and  _361
REMARK  140  A    between atoms: _361  and  _362
REMARK  141  A    between atoms: _367  and  _369
REMARK  142  A    between atoms: _369  and  _370
REMARK  143  A    between atoms: _372  and  _374
REMARK  144  A    between atoms: _374  and  _375
REMARK  145  A    between atoms: _374  and  _377
REMARK  146  A    between atoms: _380  and  _382
REMARK  147  A    between atoms: _382  and  _383
REMARK  148  A    between atoms: _382  and  _385
REMARK  149  A    between atoms: _385  and  _386
REMARK  150  A    between atoms: _389  and  _391
REMARK  151  A    between atoms: _391  and  _392
REMARK  152  A    between atoms: _391  and  _394
REMARK  153  A    between atoms: _394  and  _395
REMARK  154  A    between atoms: _398  and  _400
REMARK  155  A    between atoms: _400  and  _401
REMARK  156  A    between atoms: _400  and  _403
REMARK  157  A    between atoms: _403  and  _404
REMARK  158  A    between atoms: _407  and  _409
REMARK  159  A    between atoms: _409  and  _410
REMARK  160  A    between atoms: _409  and  _412
REMARK  161  A    between atoms: _412  and  _413
REMARK  162  A    between atoms: _418  and  _420
REMARK  163  A    between atoms: _420  and  _421
REMARK  164  A    between atoms: _420  and  _423
REMARK  165  A    between atoms: _423  and  _424
REMARK  166  A    between atoms: _424  and  _425
REMARK  167  A    between atoms: _430  and  _432
REMARK  168  A    between atoms: _432  and  _433
REMARK  169  A    between atoms: _432  and  _435
REMARK  170  A    between atoms: _435  and  _436
REMARK  171  A    between atoms: _436  and  _437
REMARK  172  A    between atoms: _437  and  _438
REMARK  173  A    between atoms: _447  and  _449
REMARK  174  A    between atoms: _449  and  _450
REMARK  175  A    between atoms: _449  and  _452
REMARK  176  A    between atoms: _452  and  _453
REMARK  177  A    between atoms: _453  and  _454
REMARK  178  A    between atoms: _457  and  _459
REMARK  179  A    between atoms: _459  and  _460
REMARK  180  A    between atoms: _459  and  _462
REMARK  181  A    between atoms: _462  and  _463
REMARK  182  A    between atoms: _463  and  _464
REMARK  183  A    between atoms: _464  and  _465
REMARK  184  A    between atoms: _465  and  _466
REMARK  185  A    between atoms: _470  and  _472
REMARK  186  A    between atoms: _472  and  _473
REMARK  187  A    between atoms: _475  and  _477
REMARK  188  A    between atoms: _477  and  _478
REMARK  189  A    between atoms: _481  and  _483
REMARK  190  A    between atoms: _483  and  _484
REMARK  191  A    between atoms: _483  and  _486
REMARK  192  A    between atoms: _486  and  _487
REMARK  193  A    between atoms: _487  and  _488
REMARK  194  A    between atoms: _493  and  _495
REMARK  195  A    between atoms: _495  and  _496
REMARK  196  A    between atoms: _499  and  _501
REMARK  197  A    between atoms: _501  and  _502
REMARK  198  A    between atoms: _501  and  _504
REMARK  199  A    between atoms: _504  and  _505
REMARK  200  A    between atoms: _508  and  _510
REMARK  201  A    between atoms: _510  and  _511
REMARK  202  A    between atoms: _510  and  _513
REMARK  203  A    between atoms: _516  and  _518
REMARK  204  A    between atoms: _518  and  _519
REMARK  205  A    between atoms: _522  and  _524
REMARK  206  A    between atoms: _524  and  _525
REMARK  207  A    between atoms: _528  and  _530
REMARK  208  A    between atoms: _530  and  _531
REMARK  209  A    between atoms: _530  and  _533
REMARK  210  A    between atoms: _533  and  _534
REMARK                            x       y       z     vdW  Elec       q    Type
REMARK                         _______ _______ _______ _____ _____    ______ ____
ROOT
ATOM      1  C   VAL A   1      45.362 -10.544   8.691  0.00  0.00    +0.238 C 
ATOM      2  O   VAL A   1      46.500 -10.523   9.154  0.00  0.00    -0.274 OA
ATOM      3  N   LEU A   2      45.097 -10.672   7.397  0.00  0.00    -0.298 N 
ATOM      4  H   LEU A   2      44.105 -10.738   7.092  0.00  0.00    +0.150 HD
ENDROOT
BRANCH   1   5
ATOM      5  CA  VAL A   1      44.162 -10.468   9.608  0.00  0.00    +0.145 C 
BRANCH   5   6
ATOM      6  CB  VAL A   1      44.247  -9.189  10.479  0.00  0.00    +0.025 C 
ATOM      7  CG2 VAL A   1      43.095  -9.130  11.478  0.00  0.00    +0.002 C 
ATOM      8  CG1 VAL A   1      44.226  -7.943   9.596  0.00  0.00    +0.002 C 
ENDBRANCH   5   6
BRANCH   5   9
ATOM      9  N   VAL A   1      44.175 -11.678  10.399  0.00  0.00    -0.238 NA
ATOM     10  H   VAL A   1      44.744 -11.705  11.269  0.00  0.00    +0.142 HD
ENDBRANCH   5   9
ENDBRANCH   1   5
BRANCH   3  11
ATOM     11  CA  LEU A   2      46.151 -10.724   6.385  0.00  0.00    +0.137 C 
BRANCH  11  12
ATOM     12  C   LEU A   2      46.828  -9.367   6.270  0.00  0.00    +0.227 C 
ATOM     13  O   LEU A   2      46.158  -8.333   6.233  0.00  0.00    -0.286 OA
ENDBRANCH  11  12
BRANCH  11  14
ATOM     14  CB  LEU A   2      45.570 -11.133   5.024  0.00  0.00    +0.028 C 
BRANCH  14  15
ATOM     15  CG  LEU A   2      45.065 -12.575   4.932  0.00  0.00    +0.002 C 
ATOM     16  CD2 LEU A   2      46.227 -13.522   5.184  0.00  0.00    +0.000 C 
ATOM     17  CD1 LEU A   2      44.422 -12.863   3.575  0.00  0.00    +0.000 C 
ENDBRANCH  14  15
ENDBRANCH  11  14
ENDBRANCH   3  11
TORSDOF 7
REMARK  Name = ../refined-set-2016/2c94/2c94_pocket.pdb
REMARK  210 active torsions:
REMARK  status: ('A' for Active; 'I' for Inactive)
REMARK    1  A    between atoms: _1  and  _3
REMARK    2  A    between atoms: _3  and  _4
REMARK    3  A    between atoms: _7  and  _9
REMARK    4  A    between atoms: _9  and  _10
REMARK    5  A    between atoms: _9  and  _12
REMARK    6  A    between atoms: _12  and  _13
REMARK    7  A    between atoms: _15  and  _17
REMARK    8  A    between atoms: _17  and  _18
REMARK    9  A    between atoms: _17  and  _20
REMARK   10  A    between atoms: _20  and  _21
REMARK   11  A    between atoms: _23  and  _25
REMARK   12  A    between atoms: _25  and  _26
REMARK   13  A    between atoms: _25  and  _28
REMARK   14  A    between atoms: _28  and  _29
REMARK   15  A    between atoms: _41  and  _42
REMARK   16  A    between atoms: _41  and  _44
REMARK   17  A    between atoms: _44  and  _45
REMARK   18  A    between atoms: _50  and  _52
REMARK   19  A    between atoms: _52  and  _53
REMARK   20  A    between atoms: _52  and  _55
REMARK   21  A    between atoms: _57  and  _59
REMARK   22  A    between atoms: _59  and  _60
REMARK   23  A    between atoms: _59  and  _62
REMARK   24  A    between atoms: _65  and  _67
REMARK   25  A    between atoms: _67  and  _68
REMARK   26  A    between atoms: _67  and  _70
REMARK   27  A    between atoms: _70  and  _71
REMARK   28  A    between atoms: _74  and  _76
REMARK   29  A    between atoms: _76  and  _77
REMARK   30  A    between atoms: _79  and  _81
REMARK   31  A    between atoms: _81  and  _82
REMARK   32  A    between atoms: _85  and  _87
REMARK   33  A    between atoms: _87  and  _88
REMARK   34  A    between atoms: _87  and  _90
REMARK   35  A    between atoms: _90  and  _91
REMARK   36  A    between atoms: _94  and  _96
REMARK   37  A    between atoms: _96  and  _97
REMARK   38  A    between atoms: _96  and  _99
REMARK   39  A    between atoms: _99  and  _100
REMARK   40  A    between atoms: _100  and  _101
REMARK   41  A    between atoms: _104  and  _106
REMARK   42  A    between atoms: _106  and  _107
REMARK   43  A    between atoms: _106  and  _109
REMARK   44  A    between atoms: _109  and  _110
REMARK   45  A    between atoms: _113  and  _115
REMARK   46  A    between atoms: _115  and  _116
REMARK   47  A    between atoms: _115  and  _118
REMARK   48  A    between atoms: _118  and  _119
REMARK   49  A    between atoms: _122  and  _124
REMARK   50  A    between atoms: _124  and  _125
REMARK   51  A    between atoms: _127  and  _129
REMARK   52  A    between atoms: _129  and  _130
REMARK   53  A    between atoms: _129  and  _132
REMARK   54  A    between atoms: _135  and  _137
REMARK   55  A    between atoms: _137  and  _138
REMARK   56  A    between atoms: _137  and  _140
REMARK   57  A    between atoms: _143  and  _145
REMARK   58  A    between atoms: _145  and  _146
REMARK   59  A    between atoms: _145  and  _148
REMARK   60  A    between atoms: _148  and  _149
REMARK   61  A    between atoms: _152  and  _154
REMARK   62  A    between atoms: _154  and  _155
REMARK   63  A    between atoms: _154  and  _157
REMARK   64  A    between atoms: _157  and  _158
REMARK   65  A    between atoms: _158  and  _159
REMARK   66  A    between atoms: _159  and  _160
REMARK   67  A    between atoms: _169  and  _171
REMARK   68  A    between atoms: _171  and  _172
REMARK   69  A    between atoms: _174  and  _176
REMARK   70  A    between atoms: _176  and  _177
REMARK   71  A    between atoms: _176  and  _179
REMARK   72  A    between atoms: _179  and  _180
REMARK   73  A    between atoms: _180  and  _181
REMARK   74  A    between atoms: _186  and  _188
REMARK   75  A    between atoms: _188  and  _189
REMARK   76  A    between atoms: _188  and  _191
REMARK   77  A    between atoms: _191  and  _192
REMARK   78  A    between atoms: _196  and  _197
REMARK   79  A    between atoms: _202  and  _204
REMARK   80  A    between atoms: _204  and  _205
REMARK   81  A    between atoms: _204  and  _207
REMARK   82  A    between atoms: _207  and  _208
REMARK   83  A    between atoms: _213  and  _215
REMARK   84  A    between atoms: _215  and  _216
REMARK   85  A    between atoms: _215  and  _218
REMARK   86  A    between atoms: _218  and  _219
REMARK   87  A    between atoms: _225  and  _227
REMARK   88  A    between atoms: _227  and  _228
REMARK   89  A    between atoms: _227  and  _230
REMARK   90  A    between atoms: _230  and  _231
REMARK   91  A    between atoms: _234  and  _236
REMARK   92  A    between atoms: _236  and  _237
REMARK   93  A    between atoms: _236  and  _239
REMARK   94  A    between atoms: _239  and  _240
REMARK   95  A    between atoms: _245  and  _246
REMARK   96  A    between atoms: _248  and  _250
REMARK   97  A    between atoms: _250  and  _251
REMARK   98  A    between atoms: _250  and  _253
REMARK   99  A    between atoms: _256  and  _258
REMARK  100  A    between atoms: _258  and  _259
REMARK  101  A    between atoms: _258  and  _261
REMARK  102  A    between atoms: _263  and  _265
REMARK  103  A    between atoms: _265  and  _266
REMARK  104  A    between atoms: _269  and  _271
REMARK  105  A    between atoms: _271  and  _272
REMARK  106  A    between atoms: _271  and  _274
REMARK  107  A    between atoms: _277  and  _279
REMARK  108  A    between atoms: _279  and  _280
REMARK  109  A    between atoms: _279  and  _282
REMARK  110  A    between atoms: _285  and  _287
REMARK  111  A    between atoms: _287  and  _288
REMARK  112  A    between atoms: _287  and  _290
REMARK  113  A    between atoms: _290  and  _291
REMARK  114  A    between atoms: _294  and  _296
REMARK  115  A    between atoms: _296  and  _297
REMARK  116  A    between atoms: _296  and  _299
REMARK  117  A    between atoms: _299  and  _300
REMARK  118  A    between atoms: _303  and  _305
REMARK  119  A    between atoms: _305  and  _306
REMARK  120  A    between atoms: _305  and  _308
REMARK  121  A    between atoms: _311  and  _313
REMARK  122  A    between atoms: _313  and  _314
REMARK  123  A    between atoms: _313  and  _316
REMARK  124  A    between atoms: _319  and  _321
REMARK  125  A    between atoms: _321  and  _322
REMARK  126  A    between atoms: _325  and  _327
REMARK  127  A    between atoms: _327  and  _328
REMARK  128  A    between atoms: _327  and  _330
REMARK  129  A    between atoms: _330  and  _331
REMARK  130  A    between atoms: _335  and  _336
REMARK  131  A    between atoms: _341  and  _343
REMARK  132  A    between atoms: _343  and  _344
REMARK  133  A    between atoms: _343  and  _346
REMARK  134  A    between atoms: _346  and  _347
REMARK  135  A    between atoms: _350  and  _352
REMARK  136  A    between atoms: _352  and  _353
REMARK  137  A    between atoms: _356  and  _358
REMARK  138  A    between atoms: _358  and  _359
REMARK  139  A    between atoms: _358  and  _361
REMARK  140  A    between atoms: _361  and  _362
REMARK  141  A    between atoms: _367  and  _369
REMARK  142  A    between atoms: _369  and  _370
REMARK  143  A    between atoms: _372  and  _374
REMARK  144  A    between atoms: _374  and  _375
REMARK  145  A    between atoms: _374  and  _377
REMARK  146  A    between atoms: _380  and  _382
REMARK  147  A    between atoms: _382  and  _383
REMARK  148  A    between atoms: _382  and  _385
REMARK  149  A    between atoms: _385  and  _386
REMARK  150  A    between atoms: _389  and  _391
REMARK  151  A    between atoms: _391  and  _392
REMARK  152  A    between atoms: _391  and  _394
REMARK  153  A    between atoms: _394  and  _395
REMARK  154  A    between atoms: _398  and  _400
REMARK  155  A    between atoms: _400  and  _401
REMARK  156  A    between atoms: _400  and  _403
REMARK  157  A    between atoms: _403  and  _404
REMARK  158  A    between atoms: _407  and  _409
REMARK  159  A    between atoms: _409  and  _410
REMARK  160  A    between atoms: _409  and  _412
REMARK  161  A    between atoms: _412  and  _413
REMARK  162  A    between atoms: _418  and  _420
REMARK  163  A    between atoms: _420  and  _421
REMARK  164  A    between atoms: _420  and  _423
REMARK  165  A    between atoms: _423  and  _424
REMARK  166  A    between atoms: _424  and  _425
REMARK  167  A    between atoms: _430  and  _432
REMARK  168  A    between atoms: _432  and  _433
REMARK  169  A    between atoms: _432  and  _435
REMARK  170  A    between atoms: _435  and  _436
REMARK  171  A    between atoms: _436  and  _437
REMARK  172  A    between atoms: _437  and  _438
REMARK  173  A    between atoms: _447  and  _449
REMARK  174  A    between atoms: _449  and  _450
REMARK  175  A    between atoms: _449  and  _452
REMARK  176  A    between atoms: _452  and  _453
REMARK  177  A    between atoms: _453  and  _454
REMARK  178  A    between atoms: _457  and  _459
REMARK  179  A    between atoms: _459  and  _460
REMARK  180  A    between atoms: _459  and  _462
REMARK  181  A    between atoms: _462  and  _463
REMARK  182  A    between atoms: _463  and  _464
REMARK  183  A    between atoms: _464  and  _465
REMARK  184  A    between atoms: _465  and  _466
REMARK  185  A    between atoms: _470  and  _472
REMARK  186  A    between atoms: _472  and  _473
REMARK  187  A    between atoms: _475  and  _477
REMARK  188  A    between atoms: _477  and  _478
REMARK  189  A    between atoms: _481  and  _483
REMARK  190  A    between atoms: _483  and  _484
REMARK  191  A    between atoms: _483  and  _486
REMARK  192  A    between atoms: _486  and  _487
REMARK  193  A    between atoms: _487  and  _488
REMARK  194  A    between atoms: _493  and  _495
REMARK  195  A    between atoms: _495  and  _496
REMARK  196  A    between atoms: _499  and  _501
REMARK  197  A    between atoms: _501  and  _502
REMARK  198  A    between atoms: _501  and  _504
REMARK  199  A    between atoms: _504  and  _505
REMARK  200  A    between atoms: _508  and  _510
REMARK  201  A    between atoms: _510  and  _511
REMARK  202  A    between atoms: _510  and  _513
REMARK  203  A    between atoms: _516  and  _518
REMARK  204  A    between atoms: _518  and  _519
REMARK  205  A    between atoms: _522  and  _524
REMARK  206  A    between atoms: _524  and  _525
REMARK  207  A    between atoms: _528  and  _530
REMARK  208  A    between atoms: _530  and  _531
REMARK  209  A    between atoms: _530  and  _533
REMARK  210  A    between atoms: _533  and  _534
REMARK                            x       y       z     vdW  Elec       q    Type
REMARK                         _______ _______ _______ _____ _____    ______ ____
ROOT
ATOM      1  CA  THR A   1      50.337  -8.386   2.512  0.00  0.00    +0.160 C 
ENDROOT
BRANCH   1   2
ATOM      2  N   THR A   1      49.556  -8.006   3.686  0.00  0.00    -0.237 NA
ATOM      3  H   THR A   1      48.711  -7.411   3.570  0.00  0.00    +0.142 HD
ENDBRANCH   1   2
BRANCH   1   4
ATOM      4  C   THR A   1      50.820  -7.188   1.697  0.00  0.00    +0.227 C 
ATOM      5  O   THR A   1      50.300  -6.078   1.816  0.00  0.00    -0.287 OA
ENDBRANCH   1   4
BRANCH   1   6
ATOM      6  CB  THR A   1      49.552  -9.364   1.574  0.00  0.00    +0.134 C 
ATOM      7  CG2 THR A   1      49.033 -10.592   2.336  0.00  0.00    +0.034 C 
BRANCH   6   8
ATOM      8  OG1 THR A   1      48.453  -8.680   0.958  0.00  0.00    -0.383 OA
ATOM      9  HG1 THR A   1      47.964  -9.307   0.368  0.00  0.00    +0.210 HD
ENDBRANCH   6   8
ENDBRANCH   1   6
TORSDOF 4
REMARK  Name = ../refined-set-2016/2c94/2c94_pocket.pdb
REMARK  210 active torsions:
REMARK  status: ('A' for Active; 'I' for Inactive)
REMARK    1  A    between atoms: _1  and  _3
REMARK    2  A    between atoms: _3  and  _4
REMARK    3  A    between atoms: _7  and  _9
REMARK    4  A    between atoms: _9  and  _10
REMARK    5  A    between atoms: _9  and  _12
REMARK    6  A    between atoms: _12  and  _13
REMARK    7  A    between atoms: _15  and  _17
REMARK    8  A    between atoms: _17  and  _18
REMARK    9  A    between atoms: _17  and  _20
REMARK   10  A    between atoms: _20  and  _21
REMARK   11  A    between atoms: _23  and  _25
REMARK   12  A    between atoms: _25  and  _26
REMARK   13  A    between atoms: _25  and  _28
REMARK   14  A    between atoms: _28  and  _29
REMARK   15  A    between atoms: _41  and  _42
REMARK   16  A    between atoms: _41  and  _44
REMARK   17  A    between atoms: _44  and  _45
REMARK   18  A    between atoms: _50  and  _52
REMARK   19  A    between atoms: _52  and  _53
REMARK   20  A    between atoms: _52  and  _55
REMARK   21  A    between atoms: _57  and  _59
REMARK   22  A    between atoms: _59  and  _60
REMARK   23  A    between atoms: _59  and  _62
REMARK   24  A    between atoms: _65  and  _67
REMARK   25  A    between atoms: _67  and  _68
REMARK   26  A    between atoms: _67  and  _70
REMARK   27  A    between atoms: _70  and  _71
REMARK   28  A    between atoms: _74  and  _76
REMARK   29  A    between atoms: _76  and  _77
REMARK   30  A    between atoms: _79  and  _81
REMARK   31  A    between atoms: _81  and  _82
REMARK   32  A    between atoms: _85  and  _87
REMARK   33  A    between atoms: _87  and  _88
REMARK   34  A    between atoms: _87  and  _90
REMARK   35  A    between atoms: _90  and  _91
REMARK   36  A    between atoms: _94  and  _96
REMARK   37  A    between atoms: _96  and  _97
REMARK   38  A    between atoms: _96  and  _99
REMARK   39  A    between atoms: _99  and  _100
REMARK   40  A    between atoms: _100  and  _101
REMARK   41  A    between atoms: _104  and  _106
REMARK   42  A    between atoms: _106  and  _107
REMARK   43  A    between atoms: _106  and  _109
REMARK   44  A    between atoms: _109  and  _110
REMARK   45  A    between atoms: _113  and  _115
REMARK   46  A    between atoms: _115  and  _116
REMARK   47  A    between atoms: _115  and  _118
REMARK   48  A    between atoms: _118  and  _119
REMARK   49  A    between atoms: _122  and  _124
REMARK   50  A    between atoms: _124  and  _125
REMARK   51  A    between atoms: _127  and  _129
REMARK   52  A    between atoms: _129  and  _130
REMARK   53  A    between atoms: _129  and  _132
REMARK   54  A    between atoms: _135  and  _137
REMARK   55  A    between atoms: _137  and  _138
REMARK   56  A    between atoms: _137  and  _140
REMARK   57  A    between atoms: _143  and  _145
REMARK   58  A    between atoms: _145  and  _146
REMARK   59  A    between atoms: _145  and  _148
REMARK   60  A    between atoms: _148  and  _149
REMARK   61  A    between atoms: _152  and  _154
REMARK   62  A    between atoms: _154  and  _155
REMARK   63  A    between atoms: _154  and  _157
REMARK   64  A    between atoms: _157  and  _158
REMARK   65  A    between atoms: _158  and  _159
REMARK   66  A    between atoms: _159  and  _160
REMARK   67  A    between atoms: _169  and  _171
REMARK   68  A    between atoms: _171  and  _172
REMARK   69  A    between atoms: _174  and  _176
REMARK   70  A    between atoms: _176  and  _177
REMARK   71  A    between atoms: _176  and  _179
REMARK   72  A    between atoms: _179  and  _180
REMARK   73  A    between atoms: _180  and  _181
REMARK   74  A    between atoms: _186  and  _188
REMARK   75  A    between atoms: _188  and  _189
REMARK   76  A    between atoms: _188  and  _191
REMARK   77  A    between atoms: _191  and  _192
REMARK   78  A    between atoms: _196  and  _197
REMARK   79  A    between atoms: _202  and  _204
REMARK   80  A    between atoms: _204  and  _205
REMARK   81  A    between atoms: _204  and  _207
REMARK   82  A    between atoms: _207  and  _208
REMARK   83  A    between atoms: _213  and  _215
REMARK   84  A    between atoms: _215  and  _216
REMARK   85  A    between atoms: _215  and  _218
REMARK   86  A    between atoms: _218  and  _219
REMARK   87  A    between atoms: _225  and  _227
REMARK   88  A    between atoms: _227  and  _228
REMARK   89  A    between atoms: _227  and  _230
REMARK   90  A    between atoms: _230  and  _231
REMARK   91  A    between atoms: _234  and  _236
REMARK   92  A    between atoms: _236  and  _237
REMARK   93  A    between atoms: _236  and  _239
REMARK   94  A    between atoms: _239  and  _240
REMARK   95  A    between atoms: _245  and  _246
REMARK   96  A    between atoms: _248  and  _250
REMARK   97  A    between atoms: _250  and  _251
REMARK   98  A    between atoms: _250  and  _253
REMARK   99  A    between atoms: _256  and  _258
REMARK  100  A    between atoms: _258  and  _259
REMARK  101  A    between atoms: _258  and  _261
REMARK  102  A    between atoms: _263  and  _265
REMARK  103  A    between atoms: _265  and  _266
REMARK  104  A    between atoms: _269  and  _271
REMARK  105  A    between atoms: _271  and  _272
REMARK  106  A    between atoms: _271  and  _274
REMARK  107  A    between atoms: _277  and  _279
REMARK  108  A    between atoms: _279  and  _280
REMARK  109  A    between atoms: _279  and  _282
REMARK  110  A    between atoms: _285  and  _287
REMARK  111  A    between atoms: _287  and  _288
REMARK  112  A    between atoms: _287  and  _290
REMARK  113  A    between atoms: _290  and  _291
REMARK  114  A    between atoms: _294  and  _296
REMARK  115  A    between atoms: _296  and  _297
REMARK  116  A    between atoms: _296  and  _299
REMARK  117  A    between atoms: _299  and  _300
REMARK  118  A    between atoms: _303  and  _305
REMARK  119  A    between atoms: _305  and  _306
REMARK  120  A    between atoms: _305  and  _308
REMARK  121  A    between atoms: _311  and  _313
REMARK  122  A    between atoms: _313  and  _314
REMARK  123  A    between atoms: _313  and  _316
REMARK  124  A    between atoms: _319  and  _321
REMARK  125  A    between atoms: _321  and  _322
REMARK  126  A    between atoms: _325  and  _327
REMARK  127  A    between atoms: _327  and  _328
REMARK  128  A    between atoms: _327  and  _330
REMARK  129  A    between atoms: _330  and  _331
REMARK  130  A    between atoms: _335  and  _336
REMARK  131  A    between atoms: _341  and  _343
REMARK  132  A    between atoms: _343  and  _344
REMARK  133  A    between atoms: _343  and  _346
REMARK  134  A    between atoms: _346  and  _347
REMARK  135  A    between atoms: _350  and  _352
REMARK  136  A    between atoms: _352  and  _353
REMARK  137  A    between atoms: _356  and  _358
REMARK  138  A    between atoms: _358  and  _359
REMARK  139  A    between atoms: _358  and  _361
REMARK  140  A    between atoms: _361  and  _362
REMARK  141  A    between atoms: _367  and  _369
REMARK  142  A    between atoms: _369  and  _370
REMARK  143  A    between atoms: _372  and  _374
REMARK  144  A    between atoms: _374  and  _375
REMARK  145  A    between atoms: _374  and  _377
REMARK  146  A    between atoms: _380  and  _382
REMARK  147  A    between atoms: _382  and  _383
REMARK  148  A    between atoms: _382  and  _385
REMARK  149  A    between atoms: _385  and  _386
REMARK  150  A    between atoms: _389  and  _391
REMARK  151  A    between atoms: _391  and  _392
REMARK  152  A    between atoms: _391  and  _394
REMARK  153  A    between atoms: _394  and  _395
REMARK  154  A    between atoms: _398  and  _400
REMARK  155  A    between atoms: _400  and  _401
REMARK  156  A    between atoms: _400  and  _403
REMARK  157  A    between atoms: _403  and  _404
REMARK  158  A    between atoms: _407  and  _409
REMARK  159  A    between atoms: _409  and  _410
REMARK  160  A    between atoms: _409  and  _412
REMARK  161  A    between atoms: _412  and  _413
REMARK  162  A    between atoms: _418  and  _420
REMARK  163  A    between atoms: _420  and  _421
REMARK  164  A    between atoms: _420  and  _423
REMARK  165  A    between atoms: _423  and  _424
REMARK  166  A    between atoms: _424  and  _425
REMARK  167  A    between atoms: _430  and  _432
REMARK  168  A    between atoms: _432  and  _433
REMARK  169  A    between atoms: _432  and  _435
REMARK  170  A    between atoms: _435  and  _436
REMARK  171  A    between atoms: _436  and  _437
REMARK  172  A    between atoms: _437  and  _438
REMARK  173  A    between atoms: _447  and  _449
REMARK  174  A    between atoms: _449  and  _450
REMARK  175  A    between atoms: _449  and  _452
REMARK  176  A    between atoms: _452  and  _453
REMARK  177  A    between atoms: _453  and  _454
REMARK  178  A    between atoms: _457  and  _459
REMARK  179  A    between atoms: _459  and  _460
REMARK  180  A    between atoms: _459  and  _462
REMARK  181  A    between atoms: _462  and  _463
REMARK  182  A    between atoms: _463  and  _464
REMARK  183  A    between atoms: _464  and  _465
REMARK  184  A    between atoms: _465  and  _466
REMARK  185  A    between atoms: _470  and  _472
REMARK  186  A    between atoms: _472  and  _473
REMARK  187  A    between atoms: _475  and  _477
REMARK  188  A    between atoms: _477  and  _478
REMARK  189  A    between atoms: _481  and  _483
REMARK  190  A    between atoms: _483  and  _484
REMARK  191  A    between atoms: _483  and  _486
REMARK  192  A    between atoms: _486  and  _487
REMARK  193  A    between atoms: _487  and  _488
REMARK  194  A    between atoms: _493  and  _495
REMARK  195  A    between atoms: _495  and  _496
REMARK  196  A    between atoms: _499  and  _501
REMARK  197  A    between atoms: _501  and  _502
REMARK  198  A    between atoms: _501  and  _504
REMARK  199  A    between atoms: _504  and  _505
REMARK  200  A    between atoms: _508  and  _510
REMARK  201  A    between atoms: _510  and  _511
REMARK  202  A    between atoms: _510  and  _513
REMARK  203  A    between atoms: _516  and  _518
REMARK  204  A    between atoms: _518  and  _519
REMARK  205  A    between atoms: _522  and  _524
REMARK  206  A    between atoms: _524  and  _525
REMARK  207  A    between atoms: _528  and  _530
REMARK  208  A    between atoms: _530  and  _531
REMARK  209  A    between atoms: _530  and  _533
REMARK  210  A    between atoms: _533  and  _534
REMARK                            x       y       z     vdW  Elec       q    Type
REMARK                         _______ _______ _______ _____ _____    ______ ____
ROOT
ATOM      1  CA  VAL A   2      36.166  10.392  14.125  0.00  0.00    +0.148 C 
ENDROOT
BRANCH   1   4
ATOM      2  C   VAL A   1      35.422   9.431  16.238  0.00  0.00    +0.238 C 
ATOM      3  O   VAL A   1      35.954   8.345  16.005  0.00  0.00    -0.274 OA
ATOM      4  N   VAL A   2      35.415  10.441  15.374  0.00  0.00    -0.297 N 
ATOM      5  H   VAL A   2      34.858  11.291  15.595  0.00  0.00    +0.150 HD
BRANCH   2   6
ATOM      6  CA  VAL A   1      34.682   9.668  17.551  0.00  0.00    +0.145 C 
BRANCH   6   7
ATOM      7  CB  VAL A   1      35.708   9.930  18.687  0.00  0.00    +0.025 C 
ATOM      8  CG2 VAL A   1      35.018  10.009  20.051  0.00  0.00    +0.002 C 
ATOM      9  CG1 VAL A   1      36.506  11.221  18.406  0.00  0.00    +0.002 C 
ENDBRANCH   6   7
BRANCH   6  10
ATOM     10  N   VAL A   1      33.862   8.504  17.816  0.00  0.00    -0.238 NA
ATOM     11  H   VAL A   1      34.293   7.559  17.756  0.00  0.00    +0.142 HD
ENDBRANCH   6  10
ENDBRANCH   2   6
ENDBRANCH   1   4
BRANCH   1  12
ATOM     12  C   VAL A   2      37.353  11.343  14.241  0.00  0.00    +0.241 C 
ATOM     13  O   VAL A   2      37.170  12.540  14.463  0.00  0.00    -0.273 OA
ATOM     14  N   ALA A   3      38.560  10.801  14.105  0.00  0.00    -0.298 N 
ATOM     15  H   ALA A   3      38.642   9.768  14.015  0.00  0.00    +0.150 HD
BRANCH  14  16
ATOM     16  CA  ALA A   3      39.773  11.613  14.079  0.00  0.00    +0.137 C 
ATOM     17  CB  ALA A   3      40.905  10.905  14.781  0.00  0.00    +0.030 C 
BRANCH  16  18
ATOM     18  C   ALA A   3      40.153  11.929  12.637  0.00  0.00    +0.227 C 
ATOM     19  O   ALA A   3      40.318  11.024  11.816  0.00  0.00    -0.286 OA
ENDBRANCH  16  18
ENDBRANCH  14  16
ENDBRANCH   1  12
BRANCH   1  20
ATOM     20  CB  VAL A   2      35.279  10.796  12.907  0.00  0.00    +0.027 C 
ATOM     21  CG2 VAL A   2      34.160   9.798  12.719  0.00  0.00    +0.002 C 
ATOM     22  CG1 VAL A   2      36.108  10.893  11.633  0.00  0.00    +0.002 C 
ENDBRANCH   1  20
TORSDOF 8
REMARK  Name = ../refined-set-2016/2c94/2c94_pocket.pdb
REMARK  210 active torsions:
REMARK  status: ('A' for Active; 'I' for Inactive)
REMARK    1  A    between atoms: _1  and  _3
REMARK    2  A    between atoms: _3  and  _4
REMARK    3  A    between atoms: _7  and  _9
REMARK    4  A    between atoms: _9  and  _10
REMARK    5  A    between atoms: _9  and  _12
REMARK    6  A    between atoms: _12  and  _13
REMARK    7  A    between atoms: _15  and  _17
REMARK    8  A    between atoms: _17  and  _18
REMARK    9  A    between atoms: _17  and  _20
REMARK   10  A    between atoms: _20  and  _21
REMARK   11  A    between atoms: _23  and  _25
REMARK   12  A    between atoms: _25  and  _26
REMARK   13  A    between atoms: _25  and  _28
REMARK   14  A    between atoms: _28  and  _29
REMARK   15  A    between atoms: _41  and  _42
REMARK   16  A    between atoms: _41  and  _44
REMARK   17  A    between atoms: _44  and  _45
REMARK   18  A    between atoms: _50  and  _52
REMARK   19  A    between atoms: _52  and  _53
REMARK   20  A    between atoms: _52  and  _55
REMARK   21  A    between atoms: _57  and  _59
REMARK   22  A    between atoms: _59  and  _60
REMARK   23  A    between atoms: _59  and  _62
REMARK   24  A    between atoms: _65  and  _67
REMARK   25  A    between atoms: _67  and  _68
REMARK   26  A    between atoms: _67  and  _70
REMARK   27  A    between atoms: _70  and  _71
REMARK   28  A    between atoms: _74  and  _76
REMARK   29  A    between atoms: _76  and  _77
REMARK   30  A    between atoms: _79  and  _81
REMARK   31  A    between atoms: _81  and  _82
REMARK   32  A    between atoms: _85  and  _87
REMARK   33  A    between atoms: _87  and  _88
REMARK   34  A    between atoms: _87  and  _90
REMARK   35  A    between atoms: _90  and  _91
REMARK   36  A    between atoms: _94  and  _96
REMARK   37  A    between atoms: _96  and  _97
REMARK   38  A    between atoms: _96  and  _99
REMARK   39  A    between atoms: _99  and  _100
REMARK   40  A    between atoms: _100  and  _101
REMARK   41  A    between atoms: _104  and  _106
REMARK   42  A    between atoms: _106  and  _107
REMARK   43  A    between atoms: _106  and  _109
REMARK   44  A    between atoms: _109  and  _110
REMARK   45  A    between atoms: _113  and  _115
REMARK   46  A    between atoms: _115  and  _116
REMARK   47  A    between atoms: _115  and  _118
REMARK   48  A    between atoms: _118  and  _119
REMARK   49  A    between atoms: _122  and  _124
REMARK   50  A    between atoms: _124  and  _125
REMARK   51  A    between atoms: _127  and  _129
REMARK   52  A    between atoms: _129  and  _130
REMARK   53  A    between atoms: _129  and  _132
REMARK   54  A    between atoms: _135  and  _137
REMARK   55  A    between atoms: _137  and  _138
REMARK   56  A    between atoms: _137  and  _140
REMARK   57  A    between atoms: _143  and  _145
REMARK   58  A    between atoms: _145  and  _146
REMARK   59  A    between atoms: _145  and  _148
REMARK   60  A    between atoms: _148  and  _149
REMARK   61  A    between atoms: _152  and  _154
REMARK   62  A    between atoms: _154  and  _155
REMARK   63  A    between atoms: _154  and  _157
REMARK   64  A    between atoms: _157  and  _158
REMARK   65  A    between atoms: _158  and  _159
REMARK   66  A    between atoms: _159  and  _160
REMARK   67  A    between atoms: _169  and  _171
REMARK   68  A    between atoms: _171  and  _172
REMARK   69  A    between atoms: _174  and  _176
REMARK   70  A    between atoms: _176  and  _177
REMARK   71  A    between atoms: _176  and  _179
REMARK   72  A    between atoms: _179  and  _180
REMARK   73  A    between atoms: _180  and  _181
REMARK   74  A    between atoms: _186  and  _188
REMARK   75  A    between atoms: _188  and  _189
REMARK   76  A    between atoms: _188  and  _191
REMARK   77  A    between atoms: _191  and  _192
REMARK   78  A    between atoms: _196  and  _197
REMARK   79  A    between atoms: _202  and  _204
REMARK   80  A    between atoms: _204  and  _205
REMARK   81  A    between atoms: _204  and  _207
REMARK   82  A    between atoms: _207  and  _208
REMARK   83  A    between atoms: _213  and  _215
REMARK   84  A    between atoms: _215  and  _216
REMARK   85  A    between atoms: _215  and  _218
REMARK   86  A    between atoms: _218  and  _219
REMARK   87  A    between atoms: _225  and  _227
REMARK   88  A    between atoms: _227  and  _228
REMARK   89  A    between atoms: _227  and  _230
REMARK   90  A    between atoms: _230  and  _231
REMARK   91  A    between atoms: _234  and  _236
REMARK   92  A    between atoms: _236  and  _237
REMARK   93  A    between atoms: _236  and  _239
REMARK   94  A    between atoms: _239  and  _240
REMARK   95  A    between atoms: _245  and  _246
REMARK   96  A    between atoms: _248  and  _250
REMARK   97  A    between atoms: _250  and  _251
REMARK   98  A    between atoms: _250  and  _253
REMARK   99  A    between atoms: _256  and  _258
REMARK  100  A    between atoms: _258  and  _259
REMARK  101  A    between atoms: _258  and  _261
REMARK  102  A    between atoms: _263  and  _265
REMARK  103  A    between atoms: _265  and  _266
REMARK  104  A    between atoms: _269  and  _271
REMARK  105  A    between atoms: _271  and  _272
REMARK  106  A    between atoms: _271  and  _274
REMARK  107  A    between atoms: _277  and  _279
REMARK  108  A    between atoms: _279  and  _280
REMARK  109  A    between atoms: _279  and  _282
REMARK  110  A    between atoms: _285  and  _287
REMARK  111  A    between atoms: _287  and  _288
REMARK  112  A    between atoms: _287  and  _290
REMARK  113  A    between atoms: _290  and  _291
REMARK  114  A    between atoms: _294  and  _296
REMARK  115  A    between atoms: _296  and  _297
REMARK  116  A    between atoms: _296  and  _299
REMARK  117  A    between atoms: _299  and  _300
REMARK  118  A    between atoms: _303  and  _305
REMARK  119  A    between atoms: _305  and  _306
REMARK  120  A    between atoms: _305  and  _308
REMARK  121  A    between atoms: _311  and  _313
REMARK  122  A    between atoms: _313  and  _314
REMARK  123  A    between atoms: _313  and  _316
REMARK  124  A    between atoms: _319  and  _321
REMARK  125  A    between atoms: _321  and  _322
REMARK  126  A    between atoms: _325  and  _327
REMARK  127  A    between atoms: _327  and  _328
REMARK  128  A    between atoms: _327  and  _330
REMARK  129  A    between atoms: _330  and  _331
REMARK  130  A    between atoms: _335  and  _336
REMARK  131  A    between atoms: _341  and  _343
REMARK  132  A    between atoms: _343  and  _344
REMARK  133  A    between atoms: _343  and  _346
REMARK  134  A    between atoms: _346  and  _347
REMARK  135  A    between atoms: _350  and  _352
REMARK  136  A    between atoms: _352  and  _353
REMARK  137  A    between atoms: _356  and  _358
REMARK  138  A    between atoms: _358  and  _359
REMARK  139  A    between atoms: _358  and  _361
REMARK  140  A    between atoms: _361  and  _362
REMARK  141  A    between atoms: _367  and  _369
REMARK  142  A    between atoms: _369  and  _370
REMARK  143  A    between atoms: _372  and  _374
REMARK  144  A    between atoms: _374  and  _375
REMARK  145  A    between atoms: _374  and  _377
REMARK  146  A    between atoms: _380  and  _382
REMARK  147  A    between atoms: _382  and  _383
REMARK  148  A    between atoms: _382  and  _385
REMARK  149  A    between atoms: _385  and  _386
REMARK  150  A    between atoms: _389  and  _391
REMARK  151  A    between atoms: _391  and  _392
REMARK  152  A    between atoms: _391  and  _394
REMARK  153  A    between atoms: _394  and  _395
REMARK  154  A    between atoms: _398  and  _400
REMARK  155  A    between atoms: _400  and  _401
REMARK  156  A    between atoms: _400  and  _403
REMARK  157  A    between atoms: _403  and  _404
REMARK  158  A    between atoms: _407  and  _409
REMARK  159  A    between atoms: _409  and  _410
REMARK  160  A    between atoms: _409  and  _412
REMARK  161  A    between atoms: _412  and  _413
REMARK  162  A    between atoms: _418  and  _420
REMARK  163  A    between atoms: _420  and  _421
REMARK  164  A    between atoms: _420  and  _423
REMARK  165  A    between atoms: _423  and  _424
REMARK  166  A    between atoms: _424  and  _425
REMARK  167  A    between atoms: _430  and  _432
REMARK  168  A    between atoms: _432  and  _433
REMARK  169  A    between atoms: _432  and  _435
REMARK  170  A    between atoms: _435  and  _436
REMARK  171  A    between atoms: _436  and  _437
REMARK  172  A    between atoms: _437  and  _438
REMARK  173  A    between atoms: _447  and  _449
REMARK  174  A    between atoms: _449  and  _450
REMARK  175  A    between atoms: _449  and  _452
REMARK  176  A    between atoms: _452  and  _453
REMARK  177  A    between atoms: _453  and  _454
REMARK  178  A    between atoms: _457  and  _459
REMARK  179  A    between atoms: _459  and  _460
REMARK  180  A    between atoms: _459  and  _462
REMARK  181  A    between atoms: _462  and  _463
REMARK  182  A    between atoms: _463  and  _464
REMARK  183  A    between atoms: _464  and  _465
REMARK  184  A    between atoms: _465  and  _466
REMARK  185  A    between atoms: _470  and  _472
REMARK  186  A    between atoms: _472  and  _473
REMARK  187  A    between atoms: _475  and  _477
REMARK  188  A    between atoms: _477  and  _478
REMARK  189  A    between atoms: _481  and  _483
REMARK  190  A    between atoms: _483  and  _484
REMARK  191  A    between atoms: _483  and  _486
REMARK  192  A    between atoms: _486  and  _487
REMARK  193  A    between atoms: _487  and  _488
REMARK  194  A    between atoms: _493  and  _495
REMARK  195  A    between atoms: _495  and  _496
REMARK  196  A    between atoms: _499  and  _501
REMARK  197  A    between atoms: _501  and  _502
REMARK  198  A    between atoms: _501  and  _504
REMARK  199  A    between atoms: _504  and  _505
REMARK  200  A    between atoms: _508  and  _510
REMARK  201  A    between atoms: _510  and  _511
REMARK  202  A    between atoms: _510  and  _513
REMARK  203  A    between atoms: _516  and  _518
REMARK  204  A    between atoms: _518  and  _519
REMARK  205  A    between atoms: _522  and  _524
REMARK  206  A    between atoms: _524  and  _525
REMARK  207  A    between atoms: _528  and  _530
REMARK  208  A    between atoms: _530  and  _531
REMARK  209  A    between atoms: _530  and  _533
REMARK  210  A    between atoms: _533  and  _534
REMARK                            x       y       z     vdW  Elec       q    Type
REMARK                         _______ _______ _______ _____ _____    ______ ____
ROOT
ATOM      1  CA  LEU A   1      43.870   6.563  19.234  0.00  0.00    +0.133 C 
ENDROOT
BRANCH   1   2
ATOM      2  N   LEU A   1      45.237   6.878  19.640  0.00  0.00    -0.239 NA
ATOM      3  H   LEU A   1      45.941   7.111  18.911  0.00  0.00    +0.142 HD
ENDBRANCH   1   2
BRANCH   1   4
ATOM      4  C   LEU A   1      43.498   5.142  19.601  0.00  0.00    +0.224 C 
ATOM      5  O   LEU A   1      42.369   4.889  20.015  0.00  0.00    -0.287 OA
ENDBRANCH   1   4
BRANCH   1   6
ATOM      6  CB  LEU A   1      43.672   6.784  17.737  0.00  0.00    +0.025 C 
BRANCH   6   7
ATOM      7  CG  LEU A   1      43.760   8.220  17.230  0.00  0.00    +0.002 C 
ATOM      8  CD2 LEU A   1      42.935   9.171  18.105  0.00  0.00    +0.000 C 
ATOM      9  CD1 LEU A   1      43.304   8.274  15.768  0.00  0.00    +0.000 C 
ENDBRANCH   6   7
ENDBRANCH   1   6
TORSDOF 4
REMARK  Name = ../refined-set-2016/2c94/2c94_pocket.pdb
REMARK  210 active torsions:
REMARK  status: ('A' for Active; 'I' for Inactive)
REMARK    1  A    between atoms: _1  and  _3
REMARK    2  A    between atoms: _3  and  _4
REMARK    3  A    between atoms: _7  and  _9
REMARK    4  A    between atoms: _9  and  _10
REMARK    5  A    between atoms: _9  and  _12
REMARK    6  A    between atoms: _12  and  _13
REMARK    7  A    between atoms: _15  and  _17
REMARK    8  A    between atoms: _17  and  _18
REMARK    9  A    between atoms: _17  and  _20
REMARK   10  A    between atoms: _20  and  _21
REMARK   11  A    between atoms: _23  and  _25
REMARK   12  A    between atoms: _25  and  _26
REMARK   13  A    between atoms: _25  and  _28
REMARK   14  A    between atoms: _28  and  _29
REMARK   15  A    between atoms: _41  and  _42
REMARK   16  A    between atoms: _41  and  _44
REMARK   17  A    between atoms: _44  and  _45
REMARK   18  A    between atoms: _50  and  _52
REMARK   19  A    between atoms: _52  and  _53
REMARK   20  A    between atoms: _52  and  _55
REMARK   21  A    between atoms: _57  and  _59
REMARK   22  A    between atoms: _59  and  _60
REMARK   23  A    between atoms: _59  and  _62
REMARK   24  A    between atoms: _65  and  _67
REMARK   25  A    between atoms: _67  and  _68
REMARK   26  A    between atoms: _67  and  _70
REMARK   27  A    between atoms: _70  and  _71
REMARK   28  A    between atoms: _74  and  _76
REMARK   29  A    between atoms: _76  and  _77
REMARK   30  A    between atoms: _79  and  _81
REMARK   31  A    between atoms: _81  and  _82
REMARK   32  A    between atoms: _85  and  _87
REMARK   33  A    between atoms: _87  and  _88
REMARK   34  A    between atoms: _87  and  _90
REMARK   35  A    between atoms: _90  and  _91
REMARK   36  A    between atoms: _94  and  _96
REMARK   37  A    between atoms: _96  and  _97
REMARK   38  A    between atoms: _96  and  _99
REMARK   39  A    between atoms: _99  and  _100
REMARK   40  A    between atoms: _100  and  _101
REMARK   41  A    between atoms: _104  and  _106
REMARK   42  A    between atoms: _106  and  _107
REMARK   43  A    between atoms: _106  and  _109
REMARK   44  A    between atoms: _109  and  _110
REMARK   45  A    between atoms: _113  and  _115
REMARK   46  A    between atoms: _115  and  _116
REMARK   47  A    between atoms: _115  and  _118
REMARK   48  A    between atoms: _118  and  _119
REMARK   49  A    between atoms: _122  and  _124
REMARK   50  A    between atoms: _124  and  _125
REMARK   51  A    between atoms: _127  and  _129
REMARK   52  A    between atoms: _129  and  _130
REMARK   53  A    between atoms: _129  and  _132
REMARK   54  A    between atoms: _135  and  _137
REMARK   55  A    between atoms: _137  and  _138
REMARK   56  A    between atoms: _137  and  _140
REMARK   57  A    between atoms: _143  and  _145
REMARK   58  A    between atoms: _145  and  _146
REMARK   59  A    between atoms: _145  and  _148
REMARK   60  A    between atoms: _148  and  _149
REMARK   61  A    between atoms: _152  and  _154
REMARK   62  A    between atoms: _154  and  _155
REMARK   63  A    between atoms: _154  and  _157
REMARK   64  A    between atoms: _157  and  _158
REMARK   65  A    between atoms: _158  and  _159
REMARK   66  A    between atoms: _159  and  _160
REMARK   67  A    between atoms: _169  and  _171
REMARK   68  A    between atoms: _171  and  _172
REMARK   69  A    between atoms: _174  and  _176
REMARK   70  A    between atoms: _176  and  _177
REMARK   71  A    between atoms: _176  and  _179
REMARK   72  A    between atoms: _179  and  _180
REMARK   73  A    between atoms: _180  and  _181
REMARK   74  A    between atoms: _186  and  _188
REMARK   75  A    between atoms: _188  and  _189
REMARK   76  A    between atoms: _188  and  _191
REMARK   77  A    between atoms: _191  and  _192
REMARK   78  A    between atoms: _196  and  _197
REMARK   79  A    between atoms: _202  and  _204
REMARK   80  A    between atoms: _204  and  _205
REMARK   81  A    between atoms: _204  and  _207
REMARK   82  A    between atoms: _207  and  _208
REMARK   83  A    between atoms: _213  and  _215
REMARK   84  A    between atoms: _215  and  _216
REMARK   85  A    between atoms: _215  and  _218
REMARK   86  A    between atoms: _218  and  _219
REMARK   87  A    between atoms: _225  and  _227
REMARK   88  A    between atoms: _227  and  _228
REMARK   89  A    between atoms: _227  and  _230
REMARK   90  A    between atoms: _230  and  _231
REMARK   91  A    between atoms: _234  and  _236
REMARK   92  A    between atoms: _236  and  _237
REMARK   93  A    between atoms: _236  and  _239
REMARK   94  A    between atoms: _239  and  _240
REMARK   95  A    between atoms: _245  and  _246
REMARK   96  A    between atoms: _248  and  _250
REMARK   97  A    between atoms: _250  and  _251
REMARK   98  A    between atoms: _250  and  _253
REMARK   99  A    between atoms: _256  and  _258
REMARK  100  A    between atoms: _258  and  _259
REMARK  101  A    between atoms: _258  and  _261
REMARK  102  A    between atoms: _263  and  _265
REMARK  103  A    between atoms: _265  and  _266
REMARK  104  A    between atoms: _269  and  _271
REMARK  105  A    between atoms: _271  and  _272
REMARK  106  A    between atoms: _271  and  _274
REMARK  107  A    between atoms: _277  and  _279
REMARK  108  A    between atoms: _279  and  _280
REMARK  109  A    between atoms: _279  and  _282
REMARK  110  A    between atoms: _285  and  _287
REMARK  111  A    between atoms: _287  and  _288
REMARK  112  A    between atoms: _287  and  _290
REMARK  113  A    between atoms: _290  and  _291
REMARK  114  A    between atoms: _294  and  _296
REMARK  115  A    between atoms: _296  and  _297
REMARK  116  A    between atoms: _296  and  _299
REMARK  117  A    between atoms: _299  and  _300
REMARK  118  A    between atoms: _303  and  _305
REMARK  119  A    between atoms: _305  and  _306
REMARK  120  A    between atoms: _305  and  _308
REMARK  121  A    between atoms: _311  and  _313
REMARK  122  A    between atoms: _313  and  _314
REMARK  123  A    between atoms: _313  and  _316
REMARK  124  A    between atoms: _319  and  _321
REMARK  125  A    between atoms: _321  and  _322
REMARK  126  A    between atoms: _325  and  _327
REMARK  127  A    between atoms: _327  and  _328
REMARK  128  A    between atoms: _327  and  _330
REMARK  129  A    between atoms: _330  and  _331
REMARK  130  A    between atoms: _335  and  _336
REMARK  131  A    between atoms: _341  and  _343
REMARK  132  A    between atoms: _343  and  _344
REMARK  133  A    between atoms: _343  and  _346
REMARK  134  A    between atoms: _346  and  _347
REMARK  135  A    between atoms: _350  and  _352
REMARK  136  A    between atoms: _352  and  _353
REMARK  137  A    between atoms: _356  and  _358
REMARK  138  A    between atoms: _358  and  _359
REMARK  139  A    between atoms: _358  and  _361
REMARK  140  A    between atoms: _361  and  _362
REMARK  141  A    between atoms: _367  and  _369
REMARK  142  A    between atoms: _369  and  _370
REMARK  143  A    between atoms: _372  and  _374
REMARK  144  A    between atoms: _374  and  _375
REMARK  145  A    between atoms: _374  and  _377
REMARK  146  A    between atoms: _380  and  _382
REMARK  147  A    between atoms: _382  and  _383
REMARK  148  A    between atoms: _382  and  _385
REMARK  149  A    between atoms: _385  and  _386
REMARK  150  A    between atoms: _389  and  _391
REMARK  151  A    between atoms: _391  and  _392
REMARK  152  A    between atoms: _391  and  _394
REMARK  153  A    between atoms: _394  and  _395
REMARK  154  A    between atoms: _398  and  _400
REMARK  155  A    between atoms: _400  and  _401
REMARK  156  A    between atoms: _400  and  _403
REMARK  157  A    between atoms: _403  and  _404
REMARK  158  A    between atoms: _407  and  _409
REMARK  159  A    between atoms: _409  and  _410
REMARK  160  A    between atoms: _409  and  _412
REMARK  161  A    between atoms: _412  and  _413
REMARK  162  A    between atoms: _418  and  _420
REMARK  163  A    between atoms: _420  and  _421
REMARK  164  A    between atoms: _420  and  _423
REMARK  165  A    between atoms: _423  and  _424
REMARK  166  A    between atoms: _424  and  _425
REMARK  167  A    between atoms: _430  and  _432
REMARK  168  A    between atoms: _432  and  _433
REMARK  169  A    between atoms: _432  and  _435
REMARK  170  A    between atoms: _435  and  _436
REMARK  171  A    between atoms: _436  and  _437
REMARK  172  A    between atoms: _437  and  _438
REMARK  173  A    between atoms: _447  and  _449
REMARK  174  A    between atoms: _449  and  _450
REMARK  175  A    between atoms: _449  and  _452
REMARK  176  A    between atoms: _452  and  _453
REMARK  177  A    between atoms: _453  and  _454
REMARK  178  A    between atoms: _457  and  _459
REMARK  179  A    between atoms: _459  and  _460
REMARK  180  A    between atoms: _459  and  _462
REMARK  181  A    between atoms: _462  and  _463
REMARK  182  A    between atoms: _463  and  _464
REMARK  183  A    between atoms: _464  and  _465
REMARK  184  A    between atoms: _465  and  _466
REMARK  185  A    between atoms: _470  and  _472
REMARK  186  A    between atoms: _472  and  _473
REMARK  187  A    between atoms: _475  and  _477
REMARK  188  A    between atoms: _477  and  _478
REMARK  189  A    between atoms: _481  and  _483
REMARK  190  A    between atoms: _483  and  _484
REMARK  191  A    between atoms: _483  and  _486
REMARK  192  A    between atoms: _486  and  _487
REMARK  193  A    between atoms: _487  and  _488
REMARK  194  A    between atoms: _493  and  _495
REMARK  195  A    between atoms: _495  and  _496
REMARK  196  A    between atoms: _499  and  _501
REMARK  197  A    between atoms: _501  and  _502
REMARK  198  A    between atoms: _501  and  _504
REMARK  199  A    between atoms: _504  and  _505
REMARK  200  A    between atoms: _508  and  _510
REMARK  201  A    between atoms: _510  and  _511
REMARK  202  A    between atoms: _510  and  _513
REMARK  203  A    between atoms: _516  and  _518
REMARK  204  A    between atoms: _518  and  _519
REMARK  205  A    between atoms: _522  and  _524
REMARK  206  A    between atoms: _524  and  _525
REMARK  207  A    between atoms: _528  and  _530
REMARK  208  A    between atoms: _530  and  _531
REMARK  209  A    between atoms: _530  and  _533
REMARK  210  A    between atoms: _533  and  _534
REMARK                            x       y       z     vdW  Elec       q    Type
REMARK                         _______ _______ _______ _____ _____    ______ ____
ROOT
ATOM      1  CA  VAL A   6      44.181  10.854   9.717  0.00  0.00    +0.149 C 
ENDROOT
BRANCH   1   2
ATOM      2  C   VAL A   6      45.001  10.343   8.545  0.00  0.00    +0.241 C 
ATOM      3  O   VAL A   6      45.549   9.241   8.609  0.00  0.00    -0.273 OA
ATOM      4  N   LEU A   7      45.063  11.138   7.477  0.00  0.00    -0.297 N 
ATOM      5  H   LEU A   7      44.518  12.024   7.475  0.00  0.00    +0.150 HD
BRANCH   4   6
ATOM      6  CA  LEU A   7      45.875  10.801   6.309  0.00  0.00    +0.149 C 
BRANCH   6   7
ATOM      7  C   LEU A   7      47.351  10.791   6.684  0.00  0.00    +0.241 C 
ATOM      8  O   LEU A   7      47.827  11.663   7.406  0.00  0.00    -0.273 OA
ATOM      9  N   THR A   8      48.068   9.784   6.206  0.00  0.00    -0.295 N 
ATOM     10  H   THR A   8      47.590   9.030   5.672  0.00  0.00    +0.150 HD
BRANCH   9  11
ATOM     11  CA  THR A   8      49.511   9.705   6.409  0.00  0.00    +0.176 C 
BRANCH  11  12
ATOM     12  C   THR A   8      50.131   9.399   5.051  0.00  0.00    +0.243 C 
ATOM     13  O   THR A   8      50.121   8.255   4.604  0.00  0.00    -0.273 OA
ATOM     14  N   THR A   9      50.637  10.430   4.376  0.00  0.00    -0.295 N 
ATOM     15  H   THR A   9      50.712  11.359   4.838  0.00  0.00    +0.150 HD
BRANCH  14  16
ATOM     16  CA  THR A   9      51.088  10.274   2.994  0.00  0.00    +0.176 C 
BRANCH  16  17
ATOM     17  C   THR A   9      52.523  10.748   2.788  0.00  0.00    +0.243 C 
ATOM     18  O   THR A   9      53.057  11.510   3.596  0.00  0.00    -0.273 OA
ATOM     19  N   ASN A  10      53.131  10.297   1.697  0.00  0.00    -0.298 N 
ATOM     20  H   ASN A  10      52.655   9.581   1.112  0.00  0.00    +0.150 HD
BRANCH  19  21
ATOM     21  CA  ASN A  10      54.451  10.779   1.296  0.00  0.00    +0.146 C 
BRANCH  21  22
ATOM     22  C   ASN A  10      54.424  12.133   0.603  0.00  0.00    +0.227 C 
ATOM     23  O   ASN A  10      55.385  12.892   0.706  0.00  0.00    -0.286 OA
ENDBRANCH  21  22
BRANCH  21  24
ATOM     24  CB  ASN A  10      55.152   9.754   0.416  0.00  0.00    +0.112 C 
BRANCH  24  25
ATOM     25  CG  ASN A  10      55.468   8.485   1.163  0.00  0.00    +0.222 C 
ATOM     26  OD1 ASN A  10      55.913   8.525   2.310  0.00  0.00    -0.275 OA
ATOM     27  ND2 ASN A  10      55.227   7.347   0.525  0.00  0.00    -0.329 N 
ATOM     28 HD21 ASN A  10      55.414   6.438   0.994  0.00  0.00    +0.145 HD
ATOM     29 HD22 ASN A  10      54.851   7.364  -0.444  0.00  0.00    +0.145 HD
ENDBRANCH  24  25
ENDBRANCH  21  24
ENDBRANCH  19  21
ENDBRANCH  16  17
BRANCH  16  30
ATOM     30  CB  THR A   9      50.178  11.048   1.999  0.00  0.00    +0.137 C 
ATOM     31  CG2 THR A   9      48.704  10.689   2.194  0.00  0.00    +0.034 C 
BRANCH  30  32
ATOM     32  OG1 THR A   9      50.362  12.455   2.183  0.00  0.00    -0.382 OA
ATOM     33  HG1 THR A   9      49.783  12.948   1.549  0.00  0.00    +0.210 HD
ENDBRANCH  30  32
ENDBRANCH  16  30
ENDBRANCH  14  16
ENDBRANCH  11  12
BRANCH  11  34
ATOM     34  CB  THR A   8      49.888   8.625   7.471  0.00  0.00    +0.137 C 
ATOM     35  CG2 THR A   8      49.220   8.913   8.807  0.00  0.00    +0.034 C 
BRANCH  34  36
ATOM     36  OG1 THR A   8      49.478   7.330   7.012  0.00  0.00    -0.382 OA
ATOM     37  HG1 THR A   8      49.935   7.124   6.158  0.00  0.00    +0.210 HD
ENDBRANCH  34  36
ENDBRANCH  11  34
ENDBRANCH   9  11
ENDBRANCH   6   7
BRANCH   6  38
ATOM     38  CB  LEU A   7      45.634  11.788   5.159  0.00  0.00    +0.029 C 
BRANCH  38  39
ATOM     39  CG  LEU A   7      44.208  11.909   4.599  0.00  0.00    +0.002 C 
ATOM     40  CD2 LEU A   7      43.694  10.556   4.126  0.00  0.00    +0.000 C 
ATOM     41  CD1 LEU A   7      44.131  12.940   3.468  0.00  0.00    +0.000 C 
ENDBRANCH  38  39
ENDBRANCH   6  38
ENDBRANCH   4   6
ENDBRANCH   1   2
BRANCH   1  43
ATOM     42  C   GLY A   5      41.863  10.382   9.169  0.00  0.00    +0.243 C 
ATOM     43  N   VAL A   6      42.985  10.023   9.789  0.00  0.00    -0.297 N 
ATOM     44  H   VAL A   6      43.009   9.137  10.333  0.00  0.00    +0.150 HD
ATOM     45  O   GLY A   5      41.742  11.449   8.579  0.00  0.00    -0.273 OA
BRANCH  42  46
ATOM     46  CA  GLY A   5      40.701   9.410   9.262  0.00  0.00    +0.176 C 
BRANCH  46  48
ATOM     47  C   ASN A   4      41.103   7.463  10.690  0.00  0.00    +0.241 C 
ATOM     48  N   GLY A   5      40.745   8.737  10.558  0.00  0.00    -0.295 N 
ATOM     49  H   GLY A   5      40.486   9.275  11.410  0.00  0.00    +0.150 HD
ATOM     50  O   ASN A   4      41.297   6.715   9.723  0.00  0.00    -0.273 OA
BRANCH  47  51
ATOM     51  CA  ASN A   4      41.214   6.954  12.123  0.00  0.00    +0.158 C 
BRANCH  51  54
ATOM     52  C   ALA A   3      39.044   6.893  13.246  0.00  0.00    +0.241 C 
ATOM     53  O   ALA A   3      39.099   8.085  13.570  0.00  0.00    -0.273 OA
ATOM     54  N   ASN A   4      39.990   6.275  12.544  0.00  0.00    -0.297 N 
ATOM     55  H   ASN A   4      39.854   5.277  12.286  0.00  0.00    +0.150 HD
BRANCH  52  56
ATOM     56  CA  ALA A   3      37.855   6.033  13.657  0.00  0.00    +0.149 C 
ATOM     57  CB  ALA A   3      36.669   6.305  12.755  0.00  0.00    +0.031 C 
BRANCH  56  60
ATOM     58  C   ILE A   2      38.210   5.755  16.055  0.00  0.00    +0.241 C 
ATOM     59  O   ILE A   2      39.216   5.062  15.878  0.00  0.00    -0.273 OA
ATOM     60  N   ALA A   3      37.511   6.288  15.055  0.00  0.00    -0.297 N 
ATOM     61  H   ALA A   3      36.700   6.901  15.274  0.00  0.00    +0.150 HD
BRANCH  58  62
ATOM     62  CA  ILE A   2      37.687   6.015  17.463  0.00  0.00    +0.148 C 
BRANCH  62  65
ATOM     63  C   PRO A   1      35.703   4.759  18.141  0.00  0.00    +0.239 C 
ATOM     64  O   PRO A   1      35.007   5.765  18.277  0.00  0.00    -0.274 OA
ATOM     65  N   ILE A   2      37.003   4.795  17.873  0.00  0.00    -0.297 N 
ATOM     66  H   ILE A   2      37.555   3.918  17.959  0.00  0.00    +0.150 HD
BRANCH  63  71
ATOM     67  N   PRO A   1      34.370   3.304  19.585  0.00  0.00    -0.210 NA
ATOM     68  CD  PRO A   1      32.926   3.070  19.405  0.00  0.00    +0.089 C 
ATOM     69  CG  PRO A   1      32.834   2.568  18.007  0.00  0.00    +0.021 C 
ATOM     70  CB  PRO A   1      33.982   3.168  17.262  0.00  0.00    +0.028 C 
ATOM     71  CA  PRO A   1      35.085   3.373  18.312  0.00  0.00    +0.149 C 
ENDBRANCH  63  71
ENDBRANCH  62  65
BRANCH  62  72
ATOM     72  CB  ILE A   2      38.873   6.411  18.396  0.00  0.00    +0.027 C 
ATOM     73  CG2 ILE A   2      39.371   7.828  18.057  0.00  0.00    +0.002 C 
BRANCH  72  74
ATOM     74  CG1 ILE A   2      38.510   6.318  19.886  0.00  0.00    +0.002 C 
ATOM     75  CD1 ILE A   2      37.419   7.293  20.366  0.00  0.00    +0.000 C 
ENDBRANCH  72  74
ENDBRANCH  62  72
ENDBRANCH  58  62
ENDBRANCH  56  60
ENDBRANCH  52  56
ENDBRANCH  51  54
BRANCH  51  76
ATOM     76  CB  ASN A   4      42.435   6.032  12.321  0.00  0.00    +0.114 C 
BRANCH  76  77
ATOM     77  CG  ASN A   4      43.768   6.762  12.144  0.00  0.00    +0.222 C 
ATOM     78  ND2 ASN A   4      44.790   6.318  12.873  0.00  0.00    -0.329 N 
ATOM     79 HD21 ASN A   4      44.653   5.524  13.531  0.00  0.00    +0.145 HD
ATOM     80 HD22 ASN A   4      45.725   6.765  12.784  0.00  0.00    +0.145 HD
ATOM     81  OD1 ASN A   4      43.878   7.699  11.350  0.00  0.00    -0.275 OA
ENDBRANCH  76  77
ENDBRANCH  51  76
ENDBRANCH  47  51
ENDBRANCH  46  48
ENDBRANCH  42  46
ENDBRANCH   1  43
BRANCH   1  82
ATOM     82  CB  VAL A   6      45.029  10.814  11.022  0.00  0.00    +0.027 C 
ATOM     83  CG2 VAL A   6      44.206  11.241  12.233  0.00  0.00    +0.002 C 
ATOM     84  CG1 VAL A   6      46.267  11.705  10.889  0.00  0.00    +0.002 C 
ENDBRANCH   1  82
TORSDOF 32
REMARK  Name = ../refined-set-2016/2c94/2c94_pocket.pdb
REMARK  210 active torsions:
REMARK  status: ('A' for Active; 'I' for Inactive)
REMARK    1  A    between atoms: _1  and  _3
REMARK    2  A    between atoms: _3  and  _4
REMARK    3  A    between atoms: _7  and  _9
REMARK    4  A    between atoms: _9  and  _10
REMARK    5  A    between atoms: _9  and  _12
REMARK    6  A    between atoms: _12  and  _13
REMARK    7  A    between atoms: _15  and  _17
REMARK    8  A    between atoms: _17  and  _18
REMARK    9  A    between atoms: _17  and  _20
REMARK   10  A    between atoms: _20  and  _21
REMARK   11  A    between atoms: _23  and  _25
REMARK   12  A    between atoms: _25  and  _26
REMARK   13  A    between atoms: _25  and  _28
REMARK   14  A    between atoms: _28  and  _29
REMARK   15  A    between atoms: _41  and  _42
REMARK   16  A    between atoms: _41  and  _44
REMARK   17  A    between atoms: _44  and  _45
REMARK   18  A    between atoms: _50  and  _52
REMARK   19  A    between atoms: _52  and  _53
REMARK   20  A    between atoms: _52  and  _55
REMARK   21  A    between atoms: _57  and  _59
REMARK   22  A    between atoms: _59  and  _60
REMARK   23  A    between atoms: _59  and  _62
REMARK   24  A    between atoms: _65  and  _67
REMARK   25  A    between atoms: _67  and  _68
REMARK   26  A    between atoms: _67  and  _70
REMARK   27  A    between atoms: _70  and  _71
REMARK   28  A    between atoms: _74  and  _76
REMARK   29  A    between atoms: _76  and  _77
REMARK   30  A    between atoms: _79  and  _81
REMARK   31  A    between atoms: _81  and  _82
REMARK   32  A    between atoms: _85  and  _87
REMARK   33  A    between atoms: _87  and  _88
REMARK   34  A    between atoms: _87  and  _90
REMARK   35  A    between atoms: _90  and  _91
REMARK   36  A    between atoms: _94  and  _96
REMARK   37  A    between atoms: _96  and  _97
REMARK   38  A    between atoms: _96  and  _99
REMARK   39  A    between atoms: _99  and  _100
REMARK   40  A    between atoms: _100  and  _101
REMARK   41  A    between atoms: _104  and  _106
REMARK   42  A    between atoms: _106  and  _107
REMARK   43  A    between atoms: _106  and  _109
REMARK   44  A    between atoms: _109  and  _110
REMARK   45  A    between atoms: _113  and  _115
REMARK   46  A    between atoms: _115  and  _116
REMARK   47  A    between atoms: _115  and  _118
REMARK   48  A    between atoms: _118  and  _119
REMARK   49  A    between atoms: _122  and  _124
REMARK   50  A    between atoms: _124  and  _125
REMARK   51  A    between atoms: _127  and  _129
REMARK   52  A    between atoms: _129  and  _130
REMARK   53  A    between atoms: _129  and  _132
REMARK   54  A    between atoms: _135  and  _137
REMARK   55  A    between atoms: _137  and  _138
REMARK   56  A    between atoms: _137  and  _140
REMARK   57  A    between atoms: _143  and  _145
REMARK   58  A    between atoms: _145  and  _146
REMARK   59  A    between atoms: _145  and  _148
REMARK   60  A    between atoms: _148  and  _149
REMARK   61  A    between atoms: _152  and  _154
REMARK   62  A    between atoms: _154  and  _155
REMARK   63  A    between atoms: _154  and  _157
REMARK   64  A    between atoms: _157  and  _158
REMARK   65  A    between atoms: _158  and  _159
REMARK   66  A    between atoms: _159  and  _160
REMARK   67  A    between atoms: _169  and  _171
REMARK   68  A    between atoms: _171  and  _172
REMARK   69  A    between atoms: _174  and  _176
REMARK   70  A    between atoms: _176  and  _177
REMARK   71  A    between atoms: _176  and  _179
REMARK   72  A    between atoms: _179  and  _180
REMARK   73  A    between atoms: _180  and  _181
REMARK   74  A    between atoms: _186  and  _188
REMARK   75  A    between atoms: _188  and  _189
REMARK   76  A    between atoms: _188  and  _191
REMARK   77  A    between atoms: _191  and  _192
REMARK   78  A    between atoms: _196  and  _197
REMARK   79  A    between atoms: _202  and  _204
REMARK   80  A    between atoms: _204  and  _205
REMARK   81  A    between atoms: _204  and  _207
REMARK   82  A    between atoms: _207  and  _208
REMARK   83  A    between atoms: _213  and  _215
REMARK   84  A    between atoms: _215  and  _216
REMARK   85  A    between atoms: _215  and  _218
REMARK   86  A    between atoms: _218  and  _219
REMARK   87  A    between atoms: _225  and  _227
REMARK   88  A    between atoms: _227  and  _228
REMARK   89  A    between atoms: _227  and  _230
REMARK   90  A    between atoms: _230  and  _231
REMARK   91  A    between atoms: _234  and  _236
REMARK   92  A    between atoms: _236  and  _237
REMARK   93  A    between atoms: _236  and  _239
REMARK   94  A    between atoms: _239  and  _240
REMARK   95  A    between atoms: _245  and  _246
REMARK   96  A    between atoms: _248  and  _250
REMARK   97  A    between atoms: _250  and  _251
REMARK   98  A    between atoms: _250  and  _253
REMARK   99  A    between atoms: _256  and  _258
REMARK  100  A    between atoms: _258  and  _259
REMARK  101  A    between atoms: _258  and  _261
REMARK  102  A    between atoms: _263  and  _265
REMARK  103  A    between atoms: _265  and  _266
REMARK  104  A    between atoms: _269  and  _271
REMARK  105  A    between atoms: _271  and  _272
REMARK  106  A    between atoms: _271  and  _274
REMARK  107  A    between atoms: _277  and  _279
REMARK  108  A    between atoms: _279  and  _280
REMARK  109  A    between atoms: _279  and  _282
REMARK  110  A    between atoms: _285  and  _287
REMARK  111  A    between atoms: _287  and  _288
REMARK  112  A    between atoms: _287  and  _290
REMARK  113  A    between atoms: _290  and  _291
REMARK  114  A    between atoms: _294  and  _296
REMARK  115  A    between atoms: _296  and  _297
REMARK  116  A    between atoms: _296  and  _299
REMARK  117  A    between atoms: _299  and  _300
REMARK  118  A    between atoms: _303  and  _305
REMARK  119  A    between atoms: _305  and  _306
REMARK  120  A    between atoms: _305  and  _308
REMARK  121  A    between atoms: _311  and  _313
REMARK  122  A    between atoms: _313  and  _314
REMARK  123  A    between atoms: _313  and  _316
REMARK  124  A    between atoms: _319  and  _321
REMARK  125  A    between atoms: _321  and  _322
REMARK  126  A    between atoms: _325  and  _327
REMARK  127  A    between atoms: _327  and  _328
REMARK  128  A    between atoms: _327  and  _330
REMARK  129  A    between atoms: _330  and  _331
REMARK  130  A    between atoms: _335  and  _336
REMARK  131  A    between atoms: _341  and  _343
REMARK  132  A    between atoms: _343  and  _344
REMARK  133  A    between atoms: _343  and  _346
REMARK  134  A    between atoms: _346  and  _347
REMARK  135  A    between atoms: _350  and  _352
REMARK  136  A    between atoms: _352  and  _353
REMARK  137  A    between atoms: _356  and  _358
REMARK  138  A    between atoms: _358  and  _359
REMARK  139  A    between atoms: _358  and  _361
REMARK  140  A    between atoms: _361  and  _362
REMARK  141  A    between atoms: _367  and  _369
REMARK  142  A    between atoms: _369  and  _370
REMARK  143  A    between atoms: _372  and  _374
REMARK  144  A    between atoms: _374  and  _375
REMARK  145  A    between atoms: _374  and  _377
REMARK  146  A    between atoms: _380  and  _382
REMARK  147  A    between atoms: _382  and  _383
REMARK  148  A    between atoms: _382  and  _385
REMARK  149  A    between atoms: _385  and  _386
REMARK  150  A    between atoms: _389  and  _391
REMARK  151  A    between atoms: _391  and  _392
REMARK  152  A    between atoms: _391  and  _394
REMARK  153  A    between atoms: _394  and  _395
REMARK  154  A    between atoms: _398  and  _400
REMARK  155  A    between atoms: _400  and  _401
REMARK  156  A    between atoms: _400  and  _403
REMARK  157  A    between atoms: _403  and  _404
REMARK  158  A    between atoms: _407  and  _409
REMARK  159  A    between atoms: _409  and  _410
REMARK  160  A    between atoms: _409  and  _412
REMARK  161  A    between atoms: _412  and  _413
REMARK  162  A    between atoms: _418  and  _420
REMARK  163  A    between atoms: _420  and  _421
REMARK  164  A    between atoms: _420  and  _423
REMARK  165  A    between atoms: _423  and  _424
REMARK  166  A    between atoms: _424  and  _425
REMARK  167  A    between atoms: _430  and  _432
REMARK  168  A    between atoms: _432  and  _433
REMARK  169  A    between atoms: _432  and  _435
REMARK  170  A    between atoms: _435  and  _436
REMARK  171  A    between atoms: _436  and  _437
REMARK  172  A    between atoms: _437  and  _438
REMARK  173  A    between atoms: _447  and  _449
REMARK  174  A    between atoms: _449  and  _450
REMARK  175  A    between atoms: _449  and  _452
REMARK  176  A    between atoms: _452  and  _453
REMARK  177  A    between atoms: _453  and  _454
REMARK  178  A    between atoms: _457  and  _459
REMARK  179  A    between atoms: _459  and  _460
REMARK  180  A    between atoms: _459  and  _462
REMARK  181  A    between atoms: _462  and  _463
REMARK  182  A    between atoms: _463  and  _464
REMARK  183  A    between atoms: _464  and  _465
REMARK  184  A    between atoms: _465  and  _466
REMARK  185  A    between atoms: _470  and  _472
REMARK  186  A    between atoms: _472  and  _473
REMARK  187  A    between atoms: _475  and  _477
REMARK  188  A    between atoms: _477  and  _478
REMARK  189  A    between atoms: _481  and  _483
REMARK  190  A    between atoms: _483  and  _484
REMARK  191  A    between atoms: _483  and  _486
REMARK  192  A    between atoms: _486  and  _487
REMARK  193  A    between atoms: _487  and  _488
REMARK  194  A    between atoms: _493  and  _495
REMARK  195  A    between atoms: _495  and  _496
REMARK  196  A    between atoms: _499  and  _501
REMARK  197  A    between atoms: _501  and  _502
REMARK  198  A    between atoms: _501  and  _504
REMARK  199  A    between atoms: _504  and  _505
REMARK  200  A    between atoms: _508  and  _510
REMARK  201  A    between atoms: _510  and  _511
REMARK  202  A    between atoms: _510  and  _513
REMARK  203  A    between atoms: _516  and  _518
REMARK  204  A    between atoms: _518  and  _519
REMARK  205  A    between atoms: _522  and  _524
REMARK  206  A    between atoms: _524  and  _525
REMARK  207  A    between atoms: _528  and  _530
REMARK  208  A    between atoms: _530  and  _531
REMARK  209  A    between atoms: _530  and  _533
REMARK  210  A    between atoms: _533  and  _534
REMARK                            x       y       z     vdW  Elec       q    Type
REMARK                         _______ _______ _______ _____ _____    ______ ____
ROOT
ATOM      1  CB  GLN A   1      49.559  10.751  -1.707  0.00  0.00    +0.035 C 
ENDROOT
BRANCH   1   2
ATOM      2  CA  GLN A   1      48.552  11.703  -2.367  0.00  0.00    +0.134 C 
BRANCH   2   3
ATOM      3  N   GLN A   1      49.222  12.879  -2.924  0.00  0.00    -0.239 NA
ATOM      4  H   GLN A   1      50.238  13.012  -2.746  0.00  0.00    +0.142 HD
ENDBRANCH   2   3
BRANCH   2   5
ATOM      5  C   GLN A   1      47.464  12.077  -1.354  0.00  0.00    +0.224 C 
ATOM      6  O   GLN A   1      46.413  11.438  -1.307  0.00  0.00    -0.287 OA
ENDBRANCH   2   5
ENDBRANCH   1   2
BRANCH   1   7
ATOM      7  CG  GLN A   1      50.408   9.942  -2.675  0.00  0.00    +0.087 C 
BRANCH   7   8
ATOM      8  CD  GLN A   1      51.605   9.285  -1.989  0.00  0.00    +0.219 C 
ATOM      9  OE1 GLN A   1      51.931   9.602  -0.844  0.00  0.00    -0.275 OA
ATOM     10  NE2 GLN A   1      52.264   8.372  -2.689  0.00  0.00    -0.329 N 
ATOM     11 HE21 GLN A   1      53.089   7.894  -2.274  0.00  0.00    +0.145 HD
ATOM     12 HE22 GLN A   1      51.956   8.133  -3.653  0.00  0.00    +0.145 HD
ENDBRANCH   7   8
ENDBRANCH   1   7
TORSDOF 5
REMARK  Name = ../refined-set-2016/2c94/2c94_pocket.pdb
REMARK  210 active torsions:
REMARK  status: ('A' for Active; 'I' for Inactive)
REMARK    1  A    between atoms: _1  and  _3
REMARK    2  A    between atoms: _3  and  _4
REMARK    3  A    between atoms: _7  and  _9
REMARK    4  A    between atoms: _9  and  _10
REMARK    5  A    between atoms: _9  and  _12
REMARK    6  A    between atoms: _12  and  _13
REMARK    7  A    between atoms: _15  and  _17
REMARK    8  A    between atoms: _17  and  _18
REMARK    9  A    between atoms: _17  and  _20
REMARK   10  A    between atoms: _20  and  _21
REMARK   11  A    between atoms: _23  and  _25
REMARK   12  A    between atoms: _25  and  _26
REMARK   13  A    between atoms: _25  and  _28
REMARK   14  A    between atoms: _28  and  _29
REMARK   15  A    between atoms: _41  and  _42
REMARK   16  A    between atoms: _41  and  _44
REMARK   17  A    between atoms: _44  and  _45
REMARK   18  A    between atoms: _50  and  _52
REMARK   19  A    between atoms: _52  and  _53
REMARK   20  A    between atoms: _52  and  _55
REMARK   21  A    between atoms: _57  and  _59
REMARK   22  A    between atoms: _59  and  _60
REMARK   23  A    between atoms: _59  and  _62
REMARK   24  A    between atoms: _65  and  _67
REMARK   25  A    between atoms: _67  and  _68
REMARK   26  A    between atoms: _67  and  _70
REMARK   27  A    between atoms: _70  and  _71
REMARK   28  A    between atoms: _74  and  _76
REMARK   29  A    between atoms: _76  and  _77
REMARK   30  A    between atoms: _79  and  _81
REMARK   31  A    between atoms: _81  and  _82
REMARK   32  A    between atoms: _85  and  _87
REMARK   33  A    between atoms: _87  and  _88
REMARK   34  A    between atoms: _87  and  _90
REMARK   35  A    between atoms: _90  and  _91
REMARK   36  A    between atoms: _94  and  _96
REMARK   37  A    between atoms: _96  and  _97
REMARK   38  A    between atoms: _96  and  _99
REMARK   39  A    between atoms: _99  and  _100
REMARK   40  A    between atoms: _100  and  _101
REMARK   41  A    between atoms: _104  and  _106
REMARK   42  A    between atoms: _106  and  _107
REMARK   43  A    between atoms: _106  and  _109
REMARK   44  A    between atoms: _109  and  _110
REMARK   45  A    between atoms: _113  and  _115
REMARK   46  A    between atoms: _115  and  _116
REMARK   47  A    between atoms: _115  and  _118
REMARK   48  A    between atoms: _118  and  _119
REMARK   49  A    between atoms: _122  and  _124
REMARK   50  A    between atoms: _124  and  _125
REMARK   51  A    between atoms: _127  and  _129
REMARK   52  A    between atoms: _129  and  _130
REMARK   53  A    between atoms: _129  and  _132
REMARK   54  A    between atoms: _135  and  _137
REMARK   55  A    between atoms: _137  and  _138
REMARK   56  A    between atoms: _137  and  _140
REMARK   57  A    between atoms: _143  and  _145
REMARK   58  A    between atoms: _145  and  _146
REMARK   59  A    between atoms: _145  and  _148
REMARK   60  A    between atoms: _148  and  _149
REMARK   61  A    between atoms: _152  and  _154
REMARK   62  A    between atoms: _154  and  _155
REMARK   63  A    between atoms: _154  and  _157
REMARK   64  A    between atoms: _157  and  _158
REMARK   65  A    between atoms: _158  and  _159
REMARK   66  A    between atoms: _159  and  _160
REMARK   67  A    between atoms: _169  and  _171
REMARK   68  A    between atoms: _171  and  _172
REMARK   69  A    between atoms: _174  and  _176
REMARK   70  A    between atoms: _176  and  _177
REMARK   71  A    between atoms: _176  and  _179
REMARK   72  A    between atoms: _179  and  _180
REMARK   73  A    between atoms: _180  and  _181
REMARK   74  A    between atoms: _186  and  _188
REMARK   75  A    between atoms: _188  and  _189
REMARK   76  A    between atoms: _188  and  _191
REMARK   77  A    between atoms: _191  and  _192
REMARK   78  A    between atoms: _196  and  _197
REMARK   79  A    between atoms: _202  and  _204
REMARK   80  A    between atoms: _204  and  _205
REMARK   81  A    between atoms: _204  and  _207
REMARK   82  A    between atoms: _207  and  _208
REMARK   83  A    between atoms: _213  and  _215
REMARK   84  A    between atoms: _215  and  _216
REMARK   85  A    between atoms: _215  and  _218
REMARK   86  A    between atoms: _218  and  _219
REMARK   87  A    between atoms: _225  and  _227
REMARK   88  A    between atoms: _227  and  _228
REMARK   89  A    between atoms: _227  and  _230
REMARK   90  A    between atoms: _230  and  _231
REMARK   91  A    between atoms: _234  and  _236
REMARK   92  A    between atoms: _236  and  _237
REMARK   93  A    between atoms: _236  and  _239
REMARK   94  A    between atoms: _239  and  _240
REMARK   95  A    between atoms: _245  and  _246
REMARK   96  A    between atoms: _248  and  _250
REMARK   97  A    between atoms: _250  and  _251
REMARK   98  A    between atoms: _250  and  _253
REMARK   99  A    between atoms: _256  and  _258
REMARK  100  A    between atoms: _258  and  _259
REMARK  101  A    between atoms: _258  and  _261
REMARK  102  A    between atoms: _263  and  _265
REMARK  103  A    between atoms: _265  and  _266
REMARK  104  A    between atoms: _269  and  _271
REMARK  105  A    between atoms: _271  and  _272
REMARK  106  A    between atoms: _271  and  _274
REMARK  107  A    between atoms: _277  and  _279
REMARK  108  A    between atoms: _279  and  _280
REMARK  109  A    between atoms: _279  and  _282
REMARK  110  A    between atoms: _285  and  _287
REMARK  111  A    between atoms: _287  and  _288
REMARK  112  A    between atoms: _287  and  _290
REMARK  113  A    between atoms: _290  and  _291
REMARK  114  A    between atoms: _294  and  _296
REMARK  115  A    between atoms: _296  and  _297
REMARK  116  A    between atoms: _296  and  _299
REMARK  117  A    between atoms: _299  and  _300
REMARK  118  A    between atoms: _303  and  _305
REMARK  119  A    between atoms: _305  and  _306
REMARK  120  A    between atoms: _305  and  _308
REMARK  121  A    between atoms: _311  and  _313
REMARK  122  A    between atoms: _313  and  _314
REMARK  123  A    between atoms: _313  and  _316
REMARK  124  A    between atoms: _319  and  _321
REMARK  125  A    between atoms: _321  and  _322
REMARK  126  A    between atoms: _325  and  _327
REMARK  127  A    between atoms: _327  and  _328
REMARK  128  A    between atoms: _327  and  _330
REMARK  129  A    between atoms: _330  and  _331
REMARK  130  A    between atoms: _335  and  _336
REMARK  131  A    between atoms: _341  and  _343
REMARK  132  A    between atoms: _343  and  _344
REMARK  133  A    between atoms: _343  and  _346
REMARK  134  A    between atoms: _346  and  _347
REMARK  135  A    between atoms: _350  and  _352
REMARK  136  A    between atoms: _352  and  _353
REMARK  137  A    between atoms: _356  and  _358
REMARK  138  A    between atoms: _358  and  _359
REMARK  139  A    between atoms: _358  and  _361
REMARK  140  A    between atoms: _361  and  _362
REMARK  141  A    between atoms: _367  and  _369
REMARK  142  A    between atoms: _369  and  _370
REMARK  143  A    between atoms: _372  and  _374
REMARK  144  A    between atoms: _374  and  _375
REMARK  145  A    between atoms: _374  and  _377
REMARK  146  A    between atoms: _380  and  _382
REMARK  147  A    between atoms: _382  and  _383
REMARK  148  A    between atoms: _382  and  _385
REMARK  149  A    between atoms: _385  and  _386
REMARK  150  A    between atoms: _389  and  _391
REMARK  151  A    between atoms: _391  and  _392
REMARK  152  A    between atoms: _391  and  _394
REMARK  153  A    between atoms: _394  and  _395
REMARK  154  A    between atoms: _398  and  _400
REMARK  155  A    between atoms: _400  and  _401
REMARK  156  A    between atoms: _400  and  _403
REMARK  157  A    between atoms: _403  and  _404
REMARK  158  A    between atoms: _407  and  _409
REMARK  159  A    between atoms: _409  and  _410
REMARK  160  A    between atoms: _409  and  _412
REMARK  161  A    between atoms: _412  and  _413
REMARK  162  A    between atoms: _418  and  _420
REMARK  163  A    between atoms: _420  and  _421
REMARK  164  A    between atoms: _420  and  _423
REMARK  165  A    between atoms: _423  and  _424
REMARK  166  A    between atoms: _424  and  _425
REMARK  167  A    between atoms: _430  and  _432
REMARK  168  A    between atoms: _432  and  _433
REMARK  169  A    between atoms: _432  and  _435
REMARK  170  A    between atoms: _435  and  _436
REMARK  171  A    between atoms: _436  and  _437
REMARK  172  A    between atoms: _437  and  _438
REMARK  173  A    between atoms: _447  and  _449
REMARK  174  A    between atoms: _449  and  _450
REMARK  175  A    between atoms: _449  and  _452
REMARK  176  A    between atoms: _452  and  _453
REMARK  177  A    between atoms: _453  and  _454
REMARK  178  A    between atoms: _457  and  _459
REMARK  179  A    between atoms: _459  and  _460
REMARK  180  A    between atoms: _459  and  _462
REMARK  181  A    between atoms: _462  and  _463
REMARK  182  A    between atoms: _463  and  _464
REMARK  183  A    between atoms: _464  and  _465
REMARK  184  A    between atoms: _465  and  _466
REMARK  185  A    between atoms: _470  and  _472
REMARK  186  A    between atoms: _472  and  _473
REMARK  187  A    between atoms: _475  and  _477
REMARK  188  A    between atoms: _477  and  _478
REMARK  189  A    between atoms: _481  and  _483
REMARK  190  A    between atoms: _483  and  _484
REMARK  191  A    between atoms: _483  and  _486
REMARK  192  A    between atoms: _486  and  _487
REMARK  193  A    between atoms: _487  and  _488
REMARK  194  A    between atoms: _493  and  _495
REMARK  195  A    between atoms: _495  and  _496
REMARK  196  A    between atoms: _499  and  _501
REMARK  197  A    between atoms: _501  and  _502
REMARK  198  A    between atoms: _501  and  _504
REMARK  199  A    between atoms: _504  and  _505
REMARK  200  A    between atoms: _508  and  _510
REMARK  201  A    between atoms: _510  and  _511
REMARK  202  A    between atoms: _510  and  _513
REMARK  203  A    between atoms: _516  and  _518
REMARK  204  A    between atoms: _518  and  _519
REMARK  205  A    between atoms: _522  and  _524
REMARK  206  A    between atoms: _524  and  _525
REMARK  207  A    between atoms: _528  and  _530
REMARK  208  A    between atoms: _530  and  _531
REMARK  209  A    between atoms: _530  and  _533
REMARK  210  A    between atoms: _533  and  _534
REMARK                            x       y       z     vdW  Elec       q    Type
REMARK                         _______ _______ _______ _____ _____    ______ ____
ROOT
ATOM      1  NE  ARG A   1      46.043   7.423  -0.572  0.00  0.00    -0.265 N 
ATOM      2  HE  ARG A   1      46.023   6.471  -0.153  0.00  0.00    +0.259 HD
ATOM      3  CZ  ARG A   1      46.649   7.558  -1.753  0.00  0.00    +0.342 C 
ATOM      4  NH2 ARG A   1      47.185   6.491  -2.335  0.00  0.00    -0.292 N 
ATOM      5 HH21 ARG A   1      47.130   5.562  -1.870  0.00  0.00    +0.255 HD
ATOM      6 HH22 ARG A   1      47.660   6.584  -3.256  0.00  0.00    +0.255 HD
ATOM      7  NH1 ARG A   1      46.732   8.745  -2.361  0.00  0.00    -0.292 N 
ATOM      8 HH11 ARG A   1      46.319   9.588  -1.914  0.00  0.00    +0.255 HD
ATOM      9 HH12 ARG A   1      47.209   8.826  -3.281  0.00  0.00    +0.255 HD
ENDROOT
BRANCH   1  10
ATOM     10  CD  ARG A   1      45.405   8.499   0.183  0.00  0.00    +0.174 C 
BRANCH  10  11
ATOM     11  CG  ARG A   1      44.104   8.945  -0.493  0.00  0.00    +0.045 C 
BRANCH  11  12
ATOM     12  CB  ARG A   1      43.368  10.022   0.293  0.00  0.00    +0.029 C 
BRANCH  12  13
ATOM     13  CA  ARG A   1      42.324  10.767  -0.548  0.00  0.00    +0.133 C 
BRANCH  13  14
ATOM     14  N   ARG A   1      42.990  11.586  -1.552  0.00  0.00    -0.239 NA
ATOM     15  H   ARG A   1      43.596  12.371  -1.239  0.00  0.00    +0.142 HD
ENDBRANCH  13  14
BRANCH  13  16
ATOM     16  C   ARG A   1      41.385  11.596   0.343  0.00  0.00    +0.224 C 
ATOM     17  O   ARG A   1      40.829  11.087   1.309  0.00  0.00    -0.287 OA
ENDBRANCH  13  16
ENDBRANCH  12  13
ENDBRANCH  11  12
ENDBRANCH  10  11
ENDBRANCH   1  10
TORSDOF 6
REMARK  Name = ../refined-set-2016/2c94/2c94_pocket.pdb
REMARK  210 active torsions:
REMARK  status: ('A' for Active; 'I' for Inactive)
REMARK    1  A    between atoms: _1  and  _3
REMARK    2  A    between atoms: _3  and  _4
REMARK    3  A    between atoms: _7  and  _9
REMARK    4  A    between atoms: _9  and  _10
REMARK    5  A    between atoms: _9  and  _12
REMARK    6  A    between atoms: _12  and  _13
REMARK    7  A    between atoms: _15  and  _17
REMARK    8  A    between atoms: _17  and  _18
REMARK    9  A    between atoms: _17  and  _20
REMARK   10  A    between atoms: _20  and  _21
REMARK   11  A    between atoms: _23  and  _25
REMARK   12  A    between atoms: _25  and  _26
REMARK   13  A    between atoms: _25  and  _28
REMARK   14  A    between atoms: _28  and  _29
REMARK   15  A    between atoms: _41  and  _42
REMARK   16  A    between atoms: _41  and  _44
REMARK   17  A    between atoms: _44  and  _45
REMARK   18  A    between atoms: _50  and  _52
REMARK   19  A    between atoms: _52  and  _53
REMARK   20  A    between atoms: _52  and  _55
REMARK   21  A    between atoms: _57  and  _59
REMARK   22  A    between atoms: _59  and  _60
REMARK   23  A    between atoms: _59  and  _62
REMARK   24  A    between atoms: _65  and  _67
REMARK   25  A    between atoms: _67  and  _68
REMARK   26  A    between atoms: _67  and  _70
REMARK   27  A    between atoms: _70  and  _71
REMARK   28  A    between atoms: _74  and  _76
REMARK   29  A    between atoms: _76  and  _77
REMARK   30  A    between atoms: _79  and  _81
REMARK   31  A    between atoms: _81  and  _82
REMARK   32  A    between atoms: _85  and  _87
REMARK   33  A    between atoms: _87  and  _88
REMARK   34  A    between atoms: _87  and  _90
REMARK   35  A    between atoms: _90  and  _91
REMARK   36  A    between atoms: _94  and  _96
REMARK   37  A    between atoms: _96  and  _97
REMARK   38  A    between atoms: _96  and  _99
REMARK   39  A    between atoms: _99  and  _100
REMARK   40  A    between atoms: _100  and  _101
REMARK   41  A    between atoms: _104  and  _106
REMARK   42  A    between atoms: _106  and  _107
REMARK   43  A    between atoms: _106  and  _109
REMARK   44  A    between atoms: _109  and  _110
REMARK   45  A    between atoms: _113  and  _115
REMARK   46  A    between atoms: _115  and  _116
REMARK   47  A    between atoms: _115  and  _118
REMARK   48  A    between atoms: _118  and  _119
REMARK   49  A    between atoms: _122  and  _124
REMARK   50  A    between atoms: _124  and  _125
REMARK   51  A    between atoms: _127  and  _129
REMARK   52  A    between atoms: _129  and  _130
REMARK   53  A    between atoms: _129  and  _132
REMARK   54  A    between atoms: _135  and  _137
REMARK   55  A    between atoms: _137  and  _138
REMARK   56  A    between atoms: _137  and  _140
REMARK   57  A    between atoms: _143  and  _145
REMARK   58  A    between atoms: _145  and  _146
REMARK   59  A    between atoms: _145  and  _148
REMARK   60  A    between atoms: _148  and  _149
REMARK   61  A    between atoms: _152  and  _154
REMARK   62  A    between atoms: _154  and  _155
REMARK   63  A    between atoms: _154  and  _157
REMARK   64  A    between atoms: _157  and  _158
REMARK   65  A    between atoms: _158  and  _159
REMARK   66  A    between atoms: _159  and  _160
REMARK   67  A    between atoms: _169  and  _171
REMARK   68  A    between atoms: _171  and  _172
REMARK   69  A    between atoms: _174  and  _176
REMARK   70  A    between atoms: _176  and  _177
REMARK   71  A    between atoms: _176  and  _179
REMARK   72  A    between atoms: _179  and  _180
REMARK   73  A    between atoms: _180  and  _181
REMARK   74  A    between atoms: _186  and  _188
REMARK   75  A    between atoms: _188  and  _189
REMARK   76  A    between atoms: _188  and  _191
REMARK   77  A    between atoms: _191  and  _192
REMARK   78  A    between atoms: _196  and  _197
REMARK   79  A    between atoms: _202  and  _204
REMARK   80  A    between atoms: _204  and  _205
REMARK   81  A    between atoms: _204  and  _207
REMARK   82  A    between atoms: _207  and  _208
REMARK   83  A    between atoms: _213  and  _215
REMARK   84  A    between atoms: _215  and  _216
REMARK   85  A    between atoms: _215  and  _218
REMARK   86  A    between atoms: _218  and  _219
REMARK   87  A    between atoms: _225  and  _227
REMARK   88  A    between atoms: _227  and  _228
REMARK   89  A    between atoms: _227  and  _230
REMARK   90  A    between atoms: _230  and  _231
REMARK   91  A    between atoms: _234  and  _236
REMARK   92  A    between atoms: _236  and  _237
REMARK   93  A    between atoms: _236  and  _239
REMARK   94  A    between atoms: _239  and  _240
REMARK   95  A    between atoms: _245  and  _246
REMARK   96  A    between atoms: _248  and  _250
REMARK   97  A    between atoms: _250  and  _251
REMARK   98  A    between atoms: _250  and  _253
REMARK   99  A    between atoms: _256  and  _258
REMARK  100  A    between atoms: _258  and  _259
REMARK  101  A    between atoms: _258  and  _261
REMARK  102  A    between atoms: _263  and  _265
REMARK  103  A    between atoms: _265  and  _266
REMARK  104  A    between atoms: _269  and  _271
REMARK  105  A    between atoms: _271  and  _272
REMARK  106  A    between atoms: _271  and  _274
REMARK  107  A    between atoms: _277  and  _279
REMARK  108  A    between atoms: _279  and  _280
REMARK  109  A    between atoms: _279  and  _282
REMARK  110  A    between atoms: _285  and  _287
REMARK  111  A    between atoms: _287  and  _288
REMARK  112  A    between atoms: _287  and  _290
REMARK  113  A    between atoms: _290  and  _291
REMARK  114  A    between atoms: _294  and  _296
REMARK  115  A    between atoms: _296  and  _297
REMARK  116  A    between atoms: _296  and  _299
REMARK  117  A    between atoms: _299  and  _300
REMARK  118  A    between atoms: _303  and  _305
REMARK  119  A    between atoms: _305  and  _306
REMARK  120  A    between atoms: _305  and  _308
REMARK  121  A    between atoms: _311  and  _313
REMARK  122  A    between atoms: _313  and  _314
REMARK  123  A    between atoms: _313  and  _316
REMARK  124  A    between atoms: _319  and  _321
REMARK  125  A    between atoms: _321  and  _322
REMARK  126  A    between atoms: _325  and  _327
REMARK  127  A    between atoms: _327  and  _328
REMARK  128  A    between atoms: _327  and  _330
REMARK  129  A    between atoms: _330  and  _331
REMARK  130  A    between atoms: _335  and  _336
REMARK  131  A    between atoms: _341  and  _343
REMARK  132  A    between atoms: _343  and  _344
REMARK  133  A    between atoms: _343  and  _346
REMARK  134  A    between atoms: _346  and  _347
REMARK  135  A    between atoms: _350  and  _352
REMARK  136  A    between atoms: _352  and  _353
REMARK  137  A    between atoms: _356  and  _358
REMARK  138  A    between atoms: _358  and  _359
REMARK  139  A    between atoms: _358  and  _361
REMARK  140  A    between atoms: _361  and  _362
REMARK  141  A    between atoms: _367  and  _369
REMARK  142  A    between atoms: _369  and  _370
REMARK  143  A    between atoms: _372  and  _374
REMARK  144  A    between atoms: _374  and  _375
REMARK  145  A    between atoms: _374  and  _377
REMARK  146  A    between atoms: _380  and  _382
REMARK  147  A    between atoms: _382  and  _383
REMARK  148  A    between atoms: _382  and  _385
REMARK  149  A    between atoms: _385  and  _386
REMARK  150  A    between atoms: _389  and  _391
REMARK  151  A    between atoms: _391  and  _392
REMARK  152  A    between atoms: _391  and  _394
REMARK  153  A    between atoms: _394  and  _395
REMARK  154  A    between atoms: _398  and  _400
REMARK  155  A    between atoms: _400  and  _401
REMARK  156  A    between atoms: _400  and  _403
REMARK  157  A    between atoms: _403  and  _404
REMARK  158  A    between atoms: _407  and  _409
REMARK  159  A    between atoms: _409  and  _410
REMARK  160  A    between atoms: _409  and  _412
REMARK  161  A    between atoms: _412  and  _413
REMARK  162  A    between atoms: _418  and  _420
REMARK  163  A    between atoms: _420  and  _421
REMARK  164  A    between atoms: _420  and  _423
REMARK  165  A    between atoms: _423  and  _424
REMARK  166  A    between atoms: _424  and  _425
REMARK  167  A    between atoms: _430  and  _432
REMARK  168  A    between atoms: _432  and  _433
REMARK  169  A    between atoms: _432  and  _435
REMARK  170  A    between atoms: _435  and  _436
REMARK  171  A    between atoms: _436  and  _437
REMARK  172  A    between atoms: _437  and  _438
REMARK  173  A    between atoms: _447  and  _449
REMARK  174  A    between atoms: _449  and  _450
REMARK  175  A    between atoms: _449  and  _452
REMARK  176  A    between atoms: _452  and  _453
REMARK  177  A    between atoms: _453  and  _454
REMARK  178  A    between atoms: _457  and  _459
REMARK  179  A    between atoms: _459  and  _460
REMARK  180  A    between atoms: _459  and  _462
REMARK  181  A    between atoms: _462  and  _463
REMARK  182  A    between atoms: _463  and  _464
REMARK  183  A    between atoms: _464  and  _465
REMARK  184  A    between atoms: _465  and  _466
REMARK  185  A    between atoms: _470  and  _472
REMARK  186  A    between atoms: _472  and  _473
REMARK  187  A    between atoms: _475  and  _477
REMARK  188  A    between atoms: _477  and  _478
REMARK  189  A    between atoms: _481  and  _483
REMARK  190  A    between atoms: _483  and  _484
REMARK  191  A    between atoms: _483  and  _486
REMARK  192  A    between atoms: _486  and  _487
REMARK  193  A    between atoms: _487  and  _488
REMARK  194  A    between atoms: _493  and  _495
REMARK  195  A    between atoms: _495  and  _496
REMARK  196  A    between atoms: _499  and  _501
REMARK  197  A    between atoms: _501  and  _502
REMARK  198  A    between atoms: _501  and  _504
REMARK  199  A    between atoms: _504  and  _505
REMARK  200  A    between atoms: _508  and  _510
REMARK  201  A    between atoms: _510  and  _511
REMARK  202  A    between atoms: _510  and  _513
REMARK  203  A    between atoms: _516  and  _518
REMARK  204  A    between atoms: _518  and  _519
REMARK  205  A    between atoms: _522  and  _524
REMARK  206  A    between atoms: _524  and  _525
REMARK  207  A    between atoms: _528  and  _530
REMARK  208  A    between atoms: _530  and  _531
REMARK  209  A    between atoms: _530  and  _533
REMARK  210  A    between atoms: _533  and  _534
REMARK                            x       y       z     vdW  Elec       q    Type
REMARK                         _______ _______ _______ _____ _____    ______ ____
ROOT
ATOM      1  CA  GLU A   1      38.589   8.413  -2.436  0.00  0.00    +0.134 C 
ENDROOT
BRANCH   1   2
ATOM      2  N   GLU A   1      39.361   8.835  -3.590  0.00  0.00    -0.239 NA
ATOM      3  H   GLU A   1      40.097   9.561  -3.473  0.00  0.00    +0.142 HD
ENDBRANCH   1   2
BRANCH   1   4
ATOM      4  C   GLU A   1      38.468   9.528  -1.402  0.00  0.00    +0.224 C 
ATOM      5  O   GLU A   1      39.104  10.582  -1.534  0.00  0.00    -0.287 OA
ENDBRANCH   1   4
BRANCH   1   6
ATOM      6  CB  GLU A   1      39.198   7.145  -1.810  0.00  0.00    +0.037 C 
BRANCH   6   7
ATOM      7  CG  GLU A   1      40.636   7.288  -1.334  0.00  0.00    +0.116 C 
BRANCH   7   8
ATOM      8  CD  GLU A   1      41.180   6.009  -0.704  0.00  0.00    +0.365 C 
ATOM      9  OE2 GLU A   1      40.411   5.297  -0.019  0.00  0.00    -0.246 OA
ATOM     10  OE1 GLU A   1      42.387   5.721  -0.887  0.00  0.00    -0.246 OA
ENDBRANCH   7   8
ENDBRANCH   6   7
ENDBRANCH   1   6
TORSDOF 5
REMARK  Name = ../refined-set-2016/2c94/2c94_pocket.pdb
REMARK  210 active torsions:
REMARK  status: ('A' for Active; 'I' for Inactive)
REMARK    1  A    between atoms: _1  and  _3
REMARK    2  A    between atoms: _3  and  _4
REMARK    3  A    between atoms: _7  and  _9
REMARK    4  A    between atoms: _9  and  _10
REMARK    5  A    between atoms: _9  and  _12
REMARK    6  A    between atoms: _12  and  _13
REMARK    7  A    between atoms: _15  and  _17
REMARK    8  A    between atoms: _17  and  _18
REMARK    9  A    between atoms: _17  and  _20
REMARK   10  A    between atoms: _20  and  _21
REMARK   11  A    between atoms: _23  and  _25
REMARK   12  A    between atoms: _25  and  _26
REMARK   13  A    between atoms: _25  and  _28
REMARK   14  A    between atoms: _28  and  _29
REMARK   15  A    between atoms: _41  and  _42
REMARK   16  A    between atoms: _41  and  _44
REMARK   17  A    between atoms: _44  and  _45
REMARK   18  A    between atoms: _50  and  _52
REMARK   19  A    between atoms: _52  and  _53
REMARK   20  A    between atoms: _52  and  _55
REMARK   21  A    between atoms: _57  and  _59
REMARK   22  A    between atoms: _59  and  _60
REMARK   23  A    between atoms: _59  and  _62
REMARK   24  A    between atoms: _65  and  _67
REMARK   25  A    between atoms: _67  and  _68
REMARK   26  A    between atoms: _67  and  _70
REMARK   27  A    between atoms: _70  and  _71
REMARK   28  A    between atoms: _74  and  _76
REMARK   29  A    between atoms: _76  and  _77
REMARK   30  A    between atoms: _79  and  _81
REMARK   31  A    between atoms: _81  and  _82
REMARK   32  A    between atoms: _85  and  _87
REMARK   33  A    between atoms: _87  and  _88
REMARK   34  A    between atoms: _87  and  _90
REMARK   35  A    between atoms: _90  and  _91
REMARK   36  A    between atoms: _94  and  _96
REMARK   37  A    between atoms: _96  and  _97
REMARK   38  A    between atoms: _96  and  _99
REMARK   39  A    between atoms: _99  and  _100
REMARK   40  A    between atoms: _100  and  _101
REMARK   41  A    between atoms: _104  and  _106
REMARK   42  A    between atoms: _106  and  _107
REMARK   43  A    between atoms: _106  and  _109
REMARK   44  A    between atoms: _109  and  _110
REMARK   45  A    between atoms: _113  and  _115
REMARK   46  A    between atoms: _115  and  _116
REMARK   47  A    between atoms: _115  and  _118
REMARK   48  A    between atoms: _118  and  _119
REMARK   49  A    between atoms: _122  and  _124
REMARK   50  A    between atoms: _124  and  _125
REMARK   51  A    between atoms: _127  and  _129
REMARK   52  A    between atoms: _129  and  _130
REMARK   53  A    between atoms: _129  and  _132
REMARK   54  A    between atoms: _135  and  _137
REMARK   55  A    between atoms: _137  and  _138
REMARK   56  A    between atoms: _137  and  _140
REMARK   57  A    between atoms: _143  and  _145
REMARK   58  A    between atoms: _145  and  _146
REMARK   59  A    between atoms: _145  and  _148
REMARK   60  A    between atoms: _148  and  _149
REMARK   61  A    between atoms: _152  and  _154
REMARK   62  A    between atoms: _154  and  _155
REMARK   63  A    between atoms: _154  and  _157
REMARK   64  A    between atoms: _157  and  _158
REMARK   65  A    between atoms: _158  and  _159
REMARK   66  A    between atoms: _159  and  _160
REMARK   67  A    between atoms: _169  and  _171
REMARK   68  A    between atoms: _171  and  _172
REMARK   69  A    between atoms: _174  and  _176
REMARK   70  A    between atoms: _176  and  _177
REMARK   71  A    between atoms: _176  and  _179
REMARK   72  A    between atoms: _179  and  _180
REMARK   73  A    between atoms: _180  and  _181
REMARK   74  A    between atoms: _186  and  _188
REMARK   75  A    between atoms: _188  and  _189
REMARK   76  A    between atoms: _188  and  _191
REMARK   77  A    between atoms: _191  and  _192
REMARK   78  A    between atoms: _196  and  _197
REMARK   79  A    between atoms: _202  and  _204
REMARK   80  A    between atoms: _204  and  _205
REMARK   81  A    between atoms: _204  and  _207
REMARK   82  A    between atoms: _207  and  _208
REMARK   83  A    between atoms: _213  and  _215
REMARK   84  A    between atoms: _215  and  _216
REMARK   85  A    between atoms: _215  and  _218
REMARK   86  A    between atoms: _218  and  _219
REMARK   87  A    between atoms: _225  and  _227
REMARK   88  A    between atoms: _227  and  _228
REMARK   89  A    between atoms: _227  and  _230
REMARK   90  A    between atoms: _230  and  _231
REMARK   91  A    between atoms: _234  and  _236
REMARK   92  A    between atoms: _236  and  _237
REMARK   93  A    between atoms: _236  and  _239
REMARK   94  A    between atoms: _239  and  _240
REMARK   95  A    between atoms: _245  and  _246
REMARK   96  A    between atoms: _248  and  _250
REMARK   97  A    between atoms: _250  and  _251
REMARK   98  A    between atoms: _250  and  _253
REMARK   99  A    between atoms: _256  and  _258
REMARK  100  A    between atoms: _258  and  _259
REMARK  101  A    between atoms: _258  and  _261
REMARK  102  A    between atoms: _263  and  _265
REMARK  103  A    between atoms: _265  and  _266
REMARK  104  A    between atoms: _269  and  _271
REMARK  105  A    between atoms: _271  and  _272
REMARK  106  A    between atoms: _271  and  _274
REMARK  107  A    between atoms: _277  and  _279
REMARK  108  A    between atoms: _279  and  _280
REMARK  109  A    between atoms: _279  and  _282
REMARK  110  A    between atoms: _285  and  _287
REMARK  111  A    between atoms: _287  and  _288
REMARK  112  A    between atoms: _287  and  _290
REMARK  113  A    between atoms: _290  and  _291
REMARK  114  A    between atoms: _294  and  _296
REMARK  115  A    between atoms: _296  and  _297
REMARK  116  A    between atoms: _296  and  _299
REMARK  117  A    between atoms: _299  and  _300
REMARK  118  A    between atoms: _303  and  _305
REMARK  119  A    between atoms: _305  and  _306
REMARK  120  A    between atoms: _305  and  _308
REMARK  121  A    between atoms: _311  and  _313
REMARK  122  A    between atoms: _313  and  _314
REMARK  123  A    between atoms: _313  and  _316
REMARK  124  A    between atoms: _319  and  _321
REMARK  125  A    between atoms: _321  and  _322
REMARK  126  A    between atoms: _325  and  _327
REMARK  127  A    between atoms: _327  and  _328
REMARK  128  A    between atoms: _327  and  _330
REMARK  129  A    between atoms: _330  and  _331
REMARK  130  A    between atoms: _335  and  _336
REMARK  131  A    between atoms: _341  and  _343
REMARK  132  A    between atoms: _343  and  _344
REMARK  133  A    between atoms: _343  and  _346
REMARK  134  A    between atoms: _346  and  _347
REMARK  135  A    between atoms: _350  and  _352
REMARK  136  A    between atoms: _352  and  _353
REMARK  137  A    between atoms: _356  and  _358
REMARK  138  A    between atoms: _358  and  _359
REMARK  139  A    between atoms: _358  and  _361
REMARK  140  A    between atoms: _361  and  _362
REMARK  141  A    between atoms: _367  and  _369
REMARK  142  A    between atoms: _369  and  _370
REMARK  143  A    between atoms: _372  and  _374
REMARK  144  A    between atoms: _374  and  _375
REMARK  145  A    between atoms: _374  and  _377
REMARK  146  A    between atoms: _380  and  _382
REMARK  147  A    between atoms: _382  and  _383
REMARK  148  A    between atoms: _382  and  _385
REMARK  149  A    between atoms: _385  and  _386
REMARK  150  A    between atoms: _389  and  _391
REMARK  151  A    between atoms: _391  and  _392
REMARK  152  A    between atoms: _391  and  _394
REMARK  153  A    between atoms: _394  and  _395
REMARK  154  A    between atoms: _398  and  _400
REMARK  155  A    between atoms: _400  and  _401
REMARK  156  A    between atoms: _400  and  _403
REMARK  157  A    between atoms: _403  and  _404
REMARK  158  A    between atoms: _407  and  _409
REMARK  159  A    between atoms: _409  and  _410
REMARK  160  A    between atoms: _409  and  _412
REMARK  161  A    between atoms: _412  and  _413
REMARK  162  A    between atoms: _418  and  _420
REMARK  163  A    between atoms: _420  and  _421
REMARK  164  A    between atoms: _420  and  _423
REMARK  165  A    between atoms: _423  and  _424
REMARK  166  A    between atoms: _424  and  _425
REMARK  167  A    between atoms: _430  and  _432
REMARK  168  A    between atoms: _432  and  _433
REMARK  169  A    between atoms: _432  and  _435
REMARK  170  A    between atoms: _435  and  _436
REMARK  171  A    between atoms: _436  and  _437
REMARK  172  A    between atoms: _437  and  _438
REMARK  173  A    between atoms: _447  and  _449
REMARK  174  A    between atoms: _449  and  _450
REMARK  175  A    between atoms: _449  and  _452
REMARK  176  A    between atoms: _452  and  _453
REMARK  177  A    between atoms: _453  and  _454
REMARK  178  A    between atoms: _457  and  _459
REMARK  179  A    between atoms: _459  and  _460
REMARK  180  A    between atoms: _459  and  _462
REMARK  181  A    between atoms: _462  and  _463
REMARK  182  A    between atoms: _463  and  _464
REMARK  183  A    between atoms: _464  and  _465
REMARK  184  A    between atoms: _465  and  _466
REMARK  185  A    between atoms: _470  and  _472
REMARK  186  A    between atoms: _472  and  _473
REMARK  187  A    between atoms: _475  and  _477
REMARK  188  A    between atoms: _477  and  _478
REMARK  189  A    between atoms: _481  and  _483
REMARK  190  A    between atoms: _483  and  _484
REMARK  191  A    between atoms: _483  and  _486
REMARK  192  A    between atoms: _486  and  _487
REMARK  193  A    between atoms: _487  and  _488
REMARK  194  A    between atoms: _493  and  _495
REMARK  195  A    between atoms: _495  and  _496
REMARK  196  A    between atoms: _499  and  _501
REMARK  197  A    between atoms: _501  and  _502
REMARK  198  A    between atoms: _501  and  _504
REMARK  199  A    between atoms: _504  and  _505
REMARK  200  A    between atoms: _508  and  _510
REMARK  201  A    between atoms: _510  and  _511
REMARK  202  A    between atoms: _510  and  _513
REMARK  203  A    between atoms: _516  and  _518
REMARK  204  A    between atoms: _518  and  _519
REMARK  205  A    between atoms: _522  and  _524
REMARK  206  A    between atoms: _524  and  _525
REMARK  207  A    between atoms: _528  and  _530
REMARK  208  A    between atoms: _530  and  _531
REMARK  209  A    between atoms: _530  and  _533
REMARK  210  A    between atoms: _533  and  _534
REMARK                            x       y       z     vdW  Elec       q    Type
REMARK                         _______ _______ _______ _____ _____    ______ ____
ROOT
ATOM      1  C   GLN A   4      35.300   6.154   6.603  0.00  0.00    +0.241 C 
ATOM      2  N   ALA A   5      36.079   7.020   7.247  0.00  0.00    -0.297 N 
ATOM      3  H   ALA A   5      36.571   7.761   6.708  0.00  0.00    +0.150 HD
ATOM      4  O   GLN A   4      34.675   5.261   7.180  0.00  0.00    -0.273 OA
ENDROOT
BRANCH   2   5
ATOM      5  CA  ALA A   5      36.258   6.950   8.699  0.00  0.00    +0.149 C 
ATOM      6  CB  ALA A   5      37.308   7.948   9.162  0.00  0.00    +0.031 C 
BRANCH   5   7
ATOM      7  C   ALA A   5      34.933   7.175   9.431  0.00  0.00    +0.241 C 
ATOM      8  O   ALA A   5      34.697   6.587  10.480  0.00  0.00    -0.273 OA
ATOM      9  N   THR A   6      34.061   8.012   8.876  0.00  0.00    -0.295 N 
ATOM     10  H   THR A   6      34.291   8.475   7.973  0.00  0.00    +0.150 HD
BRANCH   9  11
ATOM     11  CA  THR A   6      32.777   8.286   9.530  0.00  0.00    +0.176 C 
BRANCH  11  12
ATOM     12  C   THR A   6      31.808   7.113   9.384  0.00  0.00    +0.243 C 
ATOM     13  O   THR A   6      31.114   6.753  10.336  0.00  0.00    -0.273 OA
ATOM     14  N   VAL A   7      31.777   6.502   8.204  0.00  0.00    -0.297 N 
ATOM     15  H   VAL A   7      32.305   6.900   7.401  0.00  0.00    +0.150 HD
BRANCH  14  16
ATOM     16  CA  VAL A   7      31.002   5.270   8.029  0.00  0.00    +0.149 C 
BRANCH  16  17
ATOM     17  C   VAL A   7      31.499   4.224   9.032  0.00  0.00    +0.241 C 
ATOM     18  O   VAL A   7      30.695   3.541   9.670  0.00  0.00    -0.273 OA
ATOM     19  N   ALA A   8      32.821   4.104   9.174  0.00  0.00    -0.297 N 
ATOM     20  H   ALA A   8      33.454   4.713   8.617  0.00  0.00    +0.150 HD
BRANCH  19  21
ATOM     21  CA  ALA A   8      33.394   3.125  10.106  0.00  0.00    +0.149 C 
ATOM     22  CB  ALA A   8      34.901   3.098  10.002  0.00  0.00    +0.031 C 
BRANCH  21  23
ATOM     23  C   ALA A   8      32.958   3.398  11.540  0.00  0.00    +0.241 C 
ATOM     24  O   ALA A   8      32.519   2.482  12.239  0.00  0.00    -0.273 OA
ATOM     25  N   ALA A   9      33.059   4.653  11.967  0.00  0.00    -0.298 N 
ATOM     26  H   ALA A   9      33.425   5.381  11.321  0.00  0.00    +0.150 HD
BRANCH  25  27
ATOM     27  CA  ALA A   9      32.667   5.033  13.323  0.00  0.00    +0.137 C 
ATOM     28  CB  ALA A   9      32.934   6.496  13.557  0.00  0.00    +0.030 C 
BRANCH  27  29
ATOM     29  C   ALA A   9      31.200   4.722  13.599  0.00  0.00    +0.227 C 
ATOM     30  O   ALA A   9      30.869   4.169  14.646  0.00  0.00    -0.286 OA
ENDBRANCH  27  29
ENDBRANCH  25  27
ENDBRANCH  21  23
ENDBRANCH  19  21
ENDBRANCH  16  17
BRANCH  16  31
ATOM     31  CB  VAL A   7      31.081   4.712   6.580  0.00  0.00    +0.027 C 
ATOM     32  CG2 VAL A   7      30.297   3.414   6.462  0.00  0.00    +0.002 C 
ATOM     33  CG1 VAL A   7      30.504   5.703   5.587  0.00  0.00    +0.002 C 
ENDBRANCH  16  31
ENDBRANCH  14  16
ENDBRANCH  11  12
BRANCH  11  34
ATOM     34  CB  THR A   6      32.150   9.606   9.037  0.00  0.00    +0.137 C 
ATOM     35  CG2 THR A   6      30.926   9.955   9.848  0.00  0.00    +0.034 C 
BRANCH  34  36
ATOM     36  OG1 THR A   6      33.110  10.657   9.201  0.00  0.00    -0.382 OA
ATOM     37  HG1 THR A   6      33.919  10.449   8.670  0.00  0.00    +0.210 HD
ENDBRANCH  34  36
ENDBRANCH  11  34
ENDBRANCH   9  11
ENDBRANCH   5   7
ENDBRANCH   2   5
BRANCH   1  38
ATOM     38  CA  GLN A   4      35.202   6.319   5.084  0.00  0.00    +0.149 C 
BRANCH  38  41
ATOM     39  C   ALA A   3      33.934   8.409   5.140  0.00  0.00    +0.241 C 
ATOM     40  O   ALA A   3      33.098   7.919   5.897  0.00  0.00    -0.273 OA
ATOM     41  N   GLN A   4      34.982   7.722   4.697  0.00  0.00    -0.297 N 
ATOM     42  H   GLN A   4      35.662   8.186   4.062  0.00  0.00    +0.150 HD
BRANCH  39  43
ATOM     43  CA  ALA A   3      33.812   9.874   4.681  0.00  0.00    +0.149 C 
ATOM     44  CB  ALA A   3      33.313   9.959   3.243  0.00  0.00    +0.031 C 
BRANCH  43  47
ATOM     45  C   GLY A   2      35.661  10.772   6.009  0.00  0.00    +0.243 C 
ATOM     46  O   GLY A   2      35.125  10.482   7.074  0.00  0.00    -0.273 OA
ATOM     47  N   ALA A   3      35.077  10.592   4.825  0.00  0.00    -0.297 N 
ATOM     48  H   ALA A   3      35.537  10.975   3.975  0.00  0.00    +0.150 HD
BRANCH  45  49
ATOM     49  CA  GLY A   2      37.058  11.369   5.981  0.00  0.00    +0.176 C 
BRANCH  49  52
ATOM     50  C   LYS A   1      38.260   9.436   5.057  0.00  0.00    +0.238 C 
ATOM     51  O   LYS A   1      38.027   8.731   6.042  0.00  0.00    -0.274 OA
ATOM     52  N   GLY A   2      37.877  10.709   4.962  0.00  0.00    -0.296 N 
ATOM     53  H   GLY A   2      38.172  11.257   4.129  0.00  0.00    +0.150 HD
BRANCH  50  54
ATOM     54  CA  LYS A   1      38.977   8.853   3.830  0.00  0.00    +0.145 C 
BRANCH  54  55
ATOM     55  N   LYS A   1      38.730   9.619   2.619  0.00  0.00    -0.238 NA
ATOM     56  H   LYS A   1      39.468  10.243   2.234  0.00  0.00    +0.142 HD
ENDBRANCH  54  55
BRANCH  54  57
ATOM     57  CB  LYS A   1      40.479   8.618   4.031  0.00  0.00    +0.026 C 
BRANCH  57  58
ATOM     58  CG  LYS A   1      41.085   7.792   2.869  0.00  0.00    -0.000 C 
BRANCH  58  59
ATOM     59  CD  LYS A   1      42.426   7.123   3.212  0.00  0.00    -0.024 C 
BRANCH  59  60
ATOM     60  CE  LYS A   1      42.235   5.810   3.983  0.00  0.00    -0.086 C 
BRANCH  60  61
ATOM     61  NZ  LYS A   1      41.580   4.753   3.141  0.00  0.00    +0.380 N 
ATOM     62  HZ1 LYS A   1      41.471   3.884   3.701  0.00  0.00    -0.089 HD
ATOM     63  HZ2 LYS A   1      40.645   5.088   2.832  0.00  0.00    -0.089 HD
ATOM     64  HZ3 LYS A   1      42.172   4.558   2.309  0.00  0.00    -0.089 HD
ENDBRANCH  60  61
ENDBRANCH  59  60
ENDBRANCH  58  59
ENDBRANCH  57  58
ENDBRANCH  54  57
ENDBRANCH  50  54
ENDBRANCH  49  52
ENDBRANCH  45  49
ENDBRANCH  43  47
ENDBRANCH  39  43
ENDBRANCH  38  41
BRANCH  38  65
ATOM     65  CB  GLN A   4      36.467   5.770   4.427  0.00  0.00    +0.039 C 
BRANCH  65  66
ATOM     66  CG  GLN A   4      36.385   5.635   2.911  0.00  0.00    +0.087 C 
BRANCH  66  67
ATOM     67  CD  GLN A   4      37.735   5.343   2.271  0.00  0.00    +0.219 C 
ATOM     68  OE1 GLN A   4      38.730   5.110   2.958  0.00  0.00    -0.275 OA
ATOM     69  NE2 GLN A   4      37.772   5.359   0.946  0.00  0.00    -0.329 N 
ATOM     70 HE21 GLN A   4      38.666   5.170   0.448  0.00  0.00    +0.145 HD
ATOM     71 HE22 GLN A   4      36.908   5.560   0.404  0.00  0.00    +0.145 HD
ENDBRANCH  66  67
ENDBRANCH  65  66
ENDBRANCH  38  65
ENDBRANCH   1  38
TORSDOF 29
REMARK  Name = ../refined-set-2016/2c94/2c94_pocket.pdb
REMARK  210 active torsions:
REMARK  status: ('A' for Active; 'I' for Inactive)
REMARK    1  A    between atoms: _1  and  _3
REMARK    2  A    between atoms: _3  and  _4
REMARK    3  A    between atoms: _7  and  _9
REMARK    4  A    between atoms: _9  and  _10
REMARK    5  A    between atoms: _9  and  _12
REMARK    6  A    between atoms: _12  and  _13
REMARK    7  A    between atoms: _15  and  _17
REMARK    8  A    between atoms: _17  and  _18
REMARK    9  A    between atoms: _17  and  _20
REMARK   10  A    between atoms: _20  and  _21
REMARK   11  A    between atoms: _23  and  _25
REMARK   12  A    between atoms: _25  and  _26
REMARK   13  A    between atoms: _25  and  _28
REMARK   14  A    between atoms: _28  and  _29
REMARK   15  A    between atoms: _41  and  _42
REMARK   16  A    between atoms: _41  and  _44
REMARK   17  A    between atoms: _44  and  _45
REMARK   18  A    between atoms: _50  and  _52
REMARK   19  A    between atoms: _52  and  _53
REMARK   20  A    between atoms: _52  and  _55
REMARK   21  A    between atoms: _57  and  _59
REMARK   22  A    between atoms: _59  and  _60
REMARK   23  A    between atoms: _59  and  _62
REMARK   24  A    between atoms: _65  and  _67
REMARK   25  A    between atoms: _67  and  _68
REMARK   26  A    between atoms: _67  and  _70
REMARK   27  A    between atoms: _70  and  _71
REMARK   28  A    between atoms: _74  and  _76
REMARK   29  A    between atoms: _76  and  _77
REMARK   30  A    between atoms: _79  and  _81
REMARK   31  A    between atoms: _81  and  _82
REMARK   32  A    between atoms: _85  and  _87
REMARK   33  A    between atoms: _87  and  _88
REMARK   34  A    between atoms: _87  and  _90
REMARK   35  A    between atoms: _90  and  _91
REMARK   36  A    between atoms: _94  and  _96
REMARK   37  A    between atoms: _96  and  _97
REMARK   38  A    between atoms: _96  and  _99
REMARK   39  A    between atoms: _99  and  _100
REMARK   40  A    between atoms: _100  and  _101
REMARK   41  A    between atoms: _104  and  _106
REMARK   42  A    between atoms: _106  and  _107
REMARK   43  A    between atoms: _106  and  _109
REMARK   44  A    between atoms: _109  and  _110
REMARK   45  A    between atoms: _113  and  _115
REMARK   46  A    between atoms: _115  and  _116
REMARK   47  A    between atoms: _115  and  _118
REMARK   48  A    between atoms: _118  and  _119
REMARK   49  A    between atoms: _122  and  _124
REMARK   50  A    between atoms: _124  and  _125
REMARK   51  A    between atoms: _127  and  _129
REMARK   52  A    between atoms: _129  and  _130
REMARK   53  A    between atoms: _129  and  _132
REMARK   54  A    between atoms: _135  and  _137
REMARK   55  A    between atoms: _137  and  _138
REMARK   56  A    between atoms: _137  and  _140
REMARK   57  A    between atoms: _143  and  _145
REMARK   58  A    between atoms: _145  and  _146
REMARK   59  A    between atoms: _145  and  _148
REMARK   60  A    between atoms: _148  and  _149
REMARK   61  A    between atoms: _152  and  _154
REMARK   62  A    between atoms: _154  and  _155
REMARK   63  A    between atoms: _154  and  _157
REMARK   64  A    between atoms: _157  and  _158
REMARK   65  A    between atoms: _158  and  _159
REMARK   66  A    between atoms: _159  and  _160
REMARK   67  A    between atoms: _169  and  _171
REMARK   68  A    between atoms: _171  and  _172
REMARK   69  A    between atoms: _174  and  _176
REMARK   70  A    between atoms: _176  and  _177
REMARK   71  A    between atoms: _176  and  _179
REMARK   72  A    between atoms: _179  and  _180
REMARK   73  A    between atoms: _180  and  _181
REMARK   74  A    between atoms: _186  and  _188
REMARK   75  A    between atoms: _188  and  _189
REMARK   76  A    between atoms: _188  and  _191
REMARK   77  A    between atoms: _191  and  _192
REMARK   78  A    between atoms: _196  and  _197
REMARK   79  A    between atoms: _202  and  _204
REMARK   80  A    between atoms: _204  and  _205
REMARK   81  A    between atoms: _204  and  _207
REMARK   82  A    between atoms: _207  and  _208
REMARK   83  A    between atoms: _213  and  _215
REMARK   84  A    between atoms: _215  and  _216
REMARK   85  A    between atoms: _215  and  _218
REMARK   86  A    between atoms: _218  and  _219
REMARK   87  A    between atoms: _225  and  _227
REMARK   88  A    between atoms: _227  and  _228
REMARK   89  A    between atoms: _227  and  _230
REMARK   90  A    between atoms: _230  and  _231
REMARK   91  A    between atoms: _234  and  _236
REMARK   92  A    between atoms: _236  and  _237
REMARK   93  A    between atoms: _236  and  _239
REMARK   94  A    between atoms: _239  and  _240
REMARK   95  A    between atoms: _245  and  _246
REMARK   96  A    between atoms: _248  and  _250
REMARK   97  A    between atoms: _250  and  _251
REMARK   98  A    between atoms: _250  and  _253
REMARK   99  A    between atoms: _256  and  _258
REMARK  100  A    between atoms: _258  and  _259
REMARK  101  A    between atoms: _258  and  _261
REMARK  102  A    between atoms: _263  and  _265
REMARK  103  A    between atoms: _265  and  _266
REMARK  104  A    between atoms: _269  and  _271
REMARK  105  A    between atoms: _271  and  _272
REMARK  106  A    between atoms: _271  and  _274
REMARK  107  A    between atoms: _277  and  _279
REMARK  108  A    between atoms: _279  and  _280
REMARK  109  A    between atoms: _279  and  _282
REMARK  110  A    between atoms: _285  and  _287
REMARK  111  A    between atoms: _287  and  _288
REMARK  112  A    between atoms: _287  and  _290
REMARK  113  A    between atoms: _290  and  _291
REMARK  114  A    between atoms: _294  and  _296
REMARK  115  A    between atoms: _296  and  _297
REMARK  116  A    between atoms: _296  and  _299
REMARK  117  A    between atoms: _299  and  _300
REMARK  118  A    between atoms: _303  and  _305
REMARK  119  A    between atoms: _305  and  _306
REMARK  120  A    between atoms: _305  and  _308
REMARK  121  A    between atoms: _311  and  _313
REMARK  122  A    between atoms: _313  and  _314
REMARK  123  A    between atoms: _313  and  _316
REMARK  124  A    between atoms: _319  and  _321
REMARK  125  A    between atoms: _321  and  _322
REMARK  126  A    between atoms: _325  and  _327
REMARK  127  A    between atoms: _327  and  _328
REMARK  128  A    between atoms: _327  and  _330
REMARK  129  A    between atoms: _330  and  _331
REMARK  130  A    between atoms: _335  and  _336
REMARK  131  A    between atoms: _341  and  _343
REMARK  132  A    between atoms: _343  and  _344
REMARK  133  A    between atoms: _343  and  _346
REMARK  134  A    between atoms: _346  and  _347
REMARK  135  A    between atoms: _350  and  _352
REMARK  136  A    between atoms: _352  and  _353
REMARK  137  A    between atoms: _356  and  _358
REMARK  138  A    between atoms: _358  and  _359
REMARK  139  A    between atoms: _358  and  _361
REMARK  140  A    between atoms: _361  and  _362
REMARK  141  A    between atoms: _367  and  _369
REMARK  142  A    between atoms: _369  and  _370
REMARK  143  A    between atoms: _372  and  _374
REMARK  144  A    between atoms: _374  and  _375
REMARK  145  A    between atoms: _374  and  _377
REMARK  146  A    between atoms: _380  and  _382
REMARK  147  A    between atoms: _382  and  _383
REMARK  148  A    between atoms: _382  and  _385
REMARK  149  A    between atoms: _385  and  _386
REMARK  150  A    between atoms: _389  and  _391
REMARK  151  A    between atoms: _391  and  _392
REMARK  152  A    between atoms: _391  and  _394
REMARK  153  A    between atoms: _394  and  _395
REMARK  154  A    between atoms: _398  and  _400
REMARK  155  A    between atoms: _400  and  _401
REMARK  156  A    between atoms: _400  and  _403
REMARK  157  A    between atoms: _403  and  _404
REMARK  158  A    between atoms: _407  and  _409
REMARK  159  A    between atoms: _409  and  _410
REMARK  160  A    between atoms: _409  and  _412
REMARK  161  A    between atoms: _412  and  _413
REMARK  162  A    between atoms: _418  and  _420
REMARK  163  A    between atoms: _420  and  _421
REMARK  164  A    between atoms: _420  and  _423
REMARK  165  A    between atoms: _423  and  _424
REMARK  166  A    between atoms: _424  and  _425
REMARK  167  A    between atoms: _430  and  _432
REMARK  168  A    between atoms: _432  and  _433
REMARK  169  A    between atoms: _432  and  _435
REMARK  170  A    between atoms: _435  and  _436
REMARK  171  A    between atoms: _436  and  _437
REMARK  172  A    between atoms: _437  and  _438
REMARK  173  A    between atoms: _447  and  _449
REMARK  174  A    between atoms: _449  and  _450
REMARK  175  A    between atoms: _449  and  _452
REMARK  176  A    between atoms: _452  and  _453
REMARK  177  A    between atoms: _453  and  _454
REMARK  178  A    between atoms: _457  and  _459
REMARK  179  A    between atoms: _459  and  _460
REMARK  180  A    between atoms: _459  and  _462
REMARK  181  A    between atoms: _462  and  _463
REMARK  182  A    between atoms: _463  and  _464
REMARK  183  A    between atoms: _464  and  _465
REMARK  184  A    between atoms: _465  and  _466
REMARK  185  A    between atoms: _470  and  _472
REMARK  186  A    between atoms: _472  and  _473
REMARK  187  A    between atoms: _475  and  _477
REMARK  188  A    between atoms: _477  and  _478
REMARK  189  A    between atoms: _481  and  _483
REMARK  190  A    between atoms: _483  and  _484
REMARK  191  A    between atoms: _483  and  _486
REMARK  192  A    between atoms: _486  and  _487
REMARK  193  A    between atoms: _487  and  _488
REMARK  194  A    between atoms: _493  and  _495
REMARK  195  A    between atoms: _495  and  _496
REMARK  196  A    between atoms: _499  and  _501
REMARK  197  A    between atoms: _501  and  _502
REMARK  198  A    between atoms: _501  and  _504
REMARK  199  A    between atoms: _504  and  _505
REMARK  200  A    between atoms: _508  and  _510
REMARK  201  A    between atoms: _510  and  _511
REMARK  202  A    between atoms: _510  and  _513
REMARK  203  A    between atoms: _516  and  _518
REMARK  204  A    between atoms: _518  and  _519
REMARK  205  A    between atoms: _522  and  _524
REMARK  206  A    between atoms: _524  and  _525
REMARK  207  A    between atoms: _528  and  _530
REMARK  208  A    between atoms: _530  and  _531
REMARK  209  A    between atoms: _530  and  _533
REMARK  210  A    between atoms: _533  and  _534
REMARK                            x       y       z     vdW  Elec       q    Type
REMARK                         _______ _______ _______ _____ _____    ______ ____
ROOT
ATOM      1  CA  THR A   1      30.826   0.214  14.716  0.00  0.00    +0.160 C 
ENDROOT
BRANCH   1   2
ATOM      2  N   THR A   1      30.313   0.923  13.533  0.00  0.00    -0.237 NA
ATOM      3  H   THR A   1      30.851   1.715  13.128  0.00  0.00    +0.142 HD
ENDBRANCH   1   2
BRANCH   1   4
ATOM      4  C   THR A   1      30.011   0.543  15.974  0.00  0.00    +0.227 C 
ATOM      5  O   THR A   1      29.757  -0.339  16.804  0.00  0.00    -0.287 OA
ENDBRANCH   1   4
BRANCH   1   6
ATOM      6  CB  THR A   1      32.325   0.454  14.929  0.00  0.00    +0.134 C 
ATOM      7  CG2 THR A   1      32.881  -0.494  15.991  0.00  0.00    +0.034 C 
BRANCH   6   8
ATOM      8  OG1 THR A   1      33.009   0.204  13.697  0.00  0.00    -0.383 OA
ATOM      9  HG1 THR A   1      32.665   0.817  13.000  0.00  0.00    +0.210 HD
ENDBRANCH   6   8
ENDBRANCH   1   6
TORSDOF 4
REMARK  Name = ../refined-set-2016/2c94/2c94_pocket.pdb
REMARK  210 active torsions:
REMARK  status: ('A' for Active; 'I' for Inactive)
REMARK    1  A    between atoms: _1  and  _3
REMARK    2  A    between atoms: _3  and  _4
REMARK    3  A    between atoms: _7  and  _9
REMARK    4  A    between atoms: _9  and  _10
REMARK    5  A    between atoms: _9  and  _12
REMARK    6  A    between atoms: _12  and  _13
REMARK    7  A    between atoms: _15  and  _17
REMARK    8  A    between atoms: _17  and  _18
REMARK    9  A    between atoms: _17  and  _20
REMARK   10  A    between atoms: _20  and  _21
REMARK   11  A    between atoms: _23  and  _25
REMARK   12  A    between atoms: _25  and  _26
REMARK   13  A    between atoms: _25  and  _28
REMARK   14  A    between atoms: _28  and  _29
REMARK   15  A    between atoms: _41  and  _42
REMARK   16  A    between atoms: _41  and  _44
REMARK   17  A    between atoms: _44  and  _45
REMARK   18  A    between atoms: _50  and  _52
REMARK   19  A    between atoms: _52  and  _53
REMARK   20  A    between atoms: _52  and  _55
REMARK   21  A    between atoms: _57  and  _59
REMARK   22  A    between atoms: _59  and  _60
REMARK   23  A    between atoms: _59  and  _62
REMARK   24  A    between atoms: _65  and  _67
REMARK   25  A    between atoms: _67  and  _68
REMARK   26  A    between atoms: _67  and  _70
REMARK   27  A    between atoms: _70  and  _71
REMARK   28  A    between atoms: _74  and  _76
REMARK   29  A    between atoms: _76  and  _77
REMARK   30  A    between atoms: _79  and  _81
REMARK   31  A    between atoms: _81  and  _82
REMARK   32  A    between atoms: _85  and  _87
REMARK   33  A    between atoms: _87  and  _88
REMARK   34  A    between atoms: _87  and  _90
REMARK   35  A    between atoms: _90  and  _91
REMARK   36  A    between atoms: _94  and  _96
REMARK   37  A    between atoms: _96  and  _97
REMARK   38  A    between atoms: _96  and  _99
REMARK   39  A    between atoms: _99  and  _100
REMARK   40  A    between atoms: _100  and  _101
REMARK   41  A    between atoms: _104  and  _106
REMARK   42  A    between atoms: _106  and  _107
REMARK   43  A    between atoms: _106  and  _109
REMARK   44  A    between atoms: _109  and  _110
REMARK   45  A    between atoms: _113  and  _115
REMARK   46  A    between atoms: _115  and  _116
REMARK   47  A    between atoms: _115  and  _118
REMARK   48  A    between atoms: _118  and  _119
REMARK   49  A    between atoms: _122  and  _124
REMARK   50  A    between atoms: _124  and  _125
REMARK   51  A    between atoms: _127  and  _129
REMARK   52  A    between atoms: _129  and  _130
REMARK   53  A    between atoms: _129  and  _132
REMARK   54  A    between atoms: _135  and  _137
REMARK   55  A    between atoms: _137  and  _138
REMARK   56  A    between atoms: _137  and  _140
REMARK   57  A    between atoms: _143  and  _145
REMARK   58  A    between atoms: _145  and  _146
REMARK   59  A    between atoms: _145  and  _148
REMARK   60  A    between atoms: _148  and  _149
REMARK   61  A    between atoms: _152  and  _154
REMARK   62  A    between atoms: _154  and  _155
REMARK   63  A    between atoms: _154  and  _157
REMARK   64  A    between atoms: _157  and  _158
REMARK   65  A    between atoms: _158  and  _159
REMARK   66  A    between atoms: _159  and  _160
REMARK   67  A    between atoms: _169  and  _171
REMARK   68  A    between atoms: _171  and  _172
REMARK   69  A    between atoms: _174  and  _176
REMARK   70  A    between atoms: _176  and  _177
REMARK   71  A    between atoms: _176  and  _179
REMARK   72  A    between atoms: _179  and  _180
REMARK   73  A    between atoms: _180  and  _181
REMARK   74  A    between atoms: _186  and  _188
REMARK   75  A    between atoms: _188  and  _189
REMARK   76  A    between atoms: _188  and  _191
REMARK   77  A    between atoms: _191  and  _192
REMARK   78  A    between atoms: _196  and  _197
REMARK   79  A    between atoms: _202  and  _204
REMARK   80  A    between atoms: _204  and  _205
REMARK   81  A    between atoms: _204  and  _207
REMARK   82  A    between atoms: _207  and  _208
REMARK   83  A    between atoms: _213  and  _215
REMARK   84  A    between atoms: _215  and  _216
REMARK   85  A    between atoms: _215  and  _218
REMARK   86  A    between atoms: _218  and  _219
REMARK   87  A    between atoms: _225  and  _227
REMARK   88  A    between atoms: _227  and  _228
REMARK   89  A    between atoms: _227  and  _230
REMARK   90  A    between atoms: _230  and  _231
REMARK   91  A    between atoms: _234  and  _236
REMARK   92  A    between atoms: _236  and  _237
REMARK   93  A    between atoms: _236  and  _239
REMARK   94  A    between atoms: _239  and  _240
REMARK   95  A    between atoms: _245  and  _246
REMARK   96  A    between atoms: _248  and  _250
REMARK   97  A    between atoms: _250  and  _251
REMARK   98  A    between atoms: _250  and  _253
REMARK   99  A    between atoms: _256  and  _258
REMARK  100  A    between atoms: _258  and  _259
REMARK  101  A    between atoms: _258  and  _261
REMARK  102  A    between atoms: _263  and  _265
REMARK  103  A    between atoms: _265  and  _266
REMARK  104  A    between atoms: _269  and  _271
REMARK  105  A    between atoms: _271  and  _272
REMARK  106  A    between atoms: _271  and  _274
REMARK  107  A    between atoms: _277  and  _279
REMARK  108  A    between atoms: _279  and  _280
REMARK  109  A    between atoms: _279  and  _282
REMARK  110  A    between atoms: _285  and  _287
REMARK  111  A    between atoms: _287  and  _288
REMARK  112  A    between atoms: _287  and  _290
REMARK  113  A    between atoms: _290  and  _291
REMARK  114  A    between atoms: _294  and  _296
REMARK  115  A    between atoms: _296  and  _297
REMARK  116  A    between atoms: _296  and  _299
REMARK  117  A    between atoms: _299  and  _300
REMARK  118  A    between atoms: _303  and  _305
REMARK  119  A    between atoms: _305  and  _306
REMARK  120  A    between atoms: _305  and  _308
REMARK  121  A    between atoms: _311  and  _313
REMARK  122  A    between atoms: _313  and  _314
REMARK  123  A    between atoms: _313  and  _316
REMARK  124  A    between atoms: _319  and  _321
REMARK  125  A    between atoms: _321  and  _322
REMARK  126  A    between atoms: _325  and  _327
REMARK  127  A    between atoms: _327  and  _328
REMARK  128  A    between atoms: _327  and  _330
REMARK  129  A    between atoms: _330  and  _331
REMARK  130  A    between atoms: _335  and  _336
REMARK  131  A    between atoms: _341  and  _343
REMARK  132  A    between atoms: _343  and  _344
REMARK  133  A    between atoms: _343  and  _346
REMARK  134  A    between atoms: _346  and  _347
REMARK  135  A    between atoms: _350  and  _352
REMARK  136  A    between atoms: _352  and  _353
REMARK  137  A    between atoms: _356  and  _358
REMARK  138  A    between atoms: _358  and  _359
REMARK  139  A    between atoms: _358  and  _361
REMARK  140  A    between atoms: _361  and  _362
REMARK  141  A    between atoms: _367  and  _369
REMARK  142  A    between atoms: _369  and  _370
REMARK  143  A    between atoms: _372  and  _374
REMARK  144  A    between atoms: _374  and  _375
REMARK  145  A    between atoms: _374  and  _377
REMARK  146  A    between atoms: _380  and  _382
REMARK  147  A    between atoms: _382  and  _383
REMARK  148  A    between atoms: _382  and  _385
REMARK  149  A    between atoms: _385  and  _386
REMARK  150  A    between atoms: _389  and  _391
REMARK  151  A    between atoms: _391  and  _392
REMARK  152  A    between atoms: _391  and  _394
REMARK  153  A    between atoms: _394  and  _395
REMARK  154  A    between atoms: _398  and  _400
REMARK  155  A    between atoms: _400  and  _401
REMARK  156  A    between atoms: _400  and  _403
REMARK  157  A    between atoms: _403  and  _404
REMARK  158  A    between atoms: _407  and  _409
REMARK  159  A    between atoms: _409  and  _410
REMARK  160  A    between atoms: _409  and  _412
REMARK  161  A    between atoms: _412  and  _413
REMARK  162  A    between atoms: _418  and  _420
REMARK  163  A    between atoms: _420  and  _421
REMARK  164  A    between atoms: _420  and  _423
REMARK  165  A    between atoms: _423  and  _424
REMARK  166  A    between atoms: _424  and  _425
REMARK  167  A    between atoms: _430  and  _432
REMARK  168  A    between atoms: _432  and  _433
REMARK  169  A    between atoms: _432  and  _435
REMARK  170  A    between atoms: _435  and  _436
REMARK  171  A    between atoms: _436  and  _437
REMARK  172  A    between atoms: _437  and  _438
REMARK  173  A    between atoms: _447  and  _449
REMARK  174  A    between atoms: _449  and  _450
REMARK  175  A    between atoms: _449  and  _452
REMARK  176  A    between atoms: _452  and  _453
REMARK  177  A    between atoms: _453  and  _454
REMARK  178  A    between atoms: _457  and  _459
REMARK  179  A    between atoms: _459  and  _460
REMARK  180  A    between atoms: _459  and  _462
REMARK  181  A    between atoms: _462  and  _463
REMARK  182  A    between atoms: _463  and  _464
REMARK  183  A    between atoms: _464  and  _465
REMARK  184  A    between atoms: _465  and  _466
REMARK  185  A    between atoms: _470  and  _472
REMARK  186  A    between atoms: _472  and  _473
REMARK  187  A    between atoms: _475  and  _477
REMARK  188  A    between atoms: _477  and  _478
REMARK  189  A    between atoms: _481  and  _483
REMARK  190  A    between atoms: _483  and  _484
REMARK  191  A    between atoms: _483  and  _486
REMARK  192  A    between atoms: _486  and  _487
REMARK  193  A    between atoms: _487  and  _488
REMARK  194  A    between atoms: _493  and  _495
REMARK  195  A    between atoms: _495  and  _496
REMARK  196  A    between atoms: _499  and  _501
REMARK  197  A    between atoms: _501  and  _502
REMARK  198  A    between atoms: _501  and  _504
REMARK  199  A    between atoms: _504  and  _505
REMARK  200  A    between atoms: _508  and  _510
REMARK  201  A    between atoms: _510  and  _511
REMARK  202  A    between atoms: _510  and  _513
REMARK  203  A    between atoms: _516  and  _518
REMARK  204  A    between atoms: _518  and  _519
REMARK  205  A    between atoms: _522  and  _524
REMARK  206  A    between atoms: _524  and  _525
REMARK  207  A    between atoms: _528  and  _530
REMARK  208  A    between atoms: _530  and  _531
REMARK  209  A    between atoms: _530  and  _533
REMARK  210  A    between atoms: _533  and  _534
REMARK                            x       y       z     vdW  Elec       q    Type
REMARK                         _______ _______ _______ _____ _____    ______ ____
ROOT
ATOM      1  O   HOH     1      35.303   2.004   1.791  0.00  0.00    +0.000 OA
ENDROOT
TORSDOF 0
REMARK  Name = ../refined-set-2016/2c94/2c94_pocket.pdb
REMARK  210 active torsions:
REMARK  status: ('A' for Active; 'I' for Inactive)
REMARK    1  A    between atoms: _1  and  _3
REMARK    2  A    between atoms: _3  and  _4
REMARK    3  A    between atoms: _7  and  _9
REMARK    4  A    between atoms: _9  and  _10
REMARK    5  A    between atoms: _9  and  _12
REMARK    6  A    between atoms: _12  and  _13
REMARK    7  A    between atoms: _15  and  _17
REMARK    8  A    between atoms: _17  and  _18
REMARK    9  A    between atoms: _17  and  _20
REMARK   10  A    between atoms: _20  and  _21
REMARK   11  A    between atoms: _23  and  _25
REMARK   12  A    between atoms: _25  and  _26
REMARK   13  A    between atoms: _25  and  _28
REMARK   14  A    between atoms: _28  and  _29
REMARK   15  A    between atoms: _41  and  _42
REMARK   16  A    between atoms: _41  and  _44
REMARK   17  A    between atoms: _44  and  _45
REMARK   18  A    between atoms: _50  and  _52
REMARK   19  A    between atoms: _52  and  _53
REMARK   20  A    between atoms: _52  and  _55
REMARK   21  A    between atoms: _57  and  _59
REMARK   22  A    between atoms: _59  and  _60
REMARK   23  A    between atoms: _59  and  _62
REMARK   24  A    between atoms: _65  and  _67
REMARK   25  A    between atoms: _67  and  _68
REMARK   26  A    between atoms: _67  and  _70
REMARK   27  A    between atoms: _70  and  _71
REMARK   28  A    between atoms: _74  and  _76
REMARK   29  A    between atoms: _76  and  _77
REMARK   30  A    between atoms: _79  and  _81
REMARK   31  A    between atoms: _81  and  _82
REMARK   32  A    between atoms: _85  and  _87
REMARK   33  A    between atoms: _87  and  _88
REMARK   34  A    between atoms: _87  and  _90
REMARK   35  A    between atoms: _90  and  _91
REMARK   36  A    between atoms: _94  and  _96
REMARK   37  A    between atoms: _96  and  _97
REMARK   38  A    between atoms: _96  and  _99
REMARK   39  A    between atoms: _99  and  _100
REMARK   40  A    between atoms: _100  and  _101
REMARK   41  A    between atoms: _104  and  _106
REMARK   42  A    between atoms: _106  and  _107
REMARK   43  A    between atoms: _106  and  _109
REMARK   44  A    between atoms: _109  and  _110
REMARK   45  A    between atoms: _113  and  _115
REMARK   46  A    between atoms: _115  and  _116
REMARK   47  A    between atoms: _115  and  _118
REMARK   48  A    between atoms: _118  and  _119
REMARK   49  A    between atoms: _122  and  _124
REMARK   50  A    between atoms: _124  and  _125
REMARK   51  A    between atoms: _127  and  _129
REMARK   52  A    between atoms: _129  and  _130
REMARK   53  A    between atoms: _129  and  _132
REMARK   54  A    between atoms: _135  and  _137
REMARK   55  A    between atoms: _137  and  _138
REMARK   56  A    between atoms: _137  and  _140
REMARK   57  A    between atoms: _143  and  _145
REMARK   58  A    between atoms: _145  and  _146
REMARK   59  A    between atoms: _145  and  _148
REMARK   60  A    between atoms: _148  and  _149
REMARK   61  A    between atoms: _152  and  _154
REMARK   62  A    between atoms: _154  and  _155
REMARK   63  A    between atoms: _154  and  _157
REMARK   64  A    between atoms: _157  and  _158
REMARK   65  A    between atoms: _158  and  _159
REMARK   66  A    between atoms: _159  and  _160
REMARK   67  A    between atoms: _169  and  _171
REMARK   68  A    between atoms: _171  and  _172
REMARK   69  A    between atoms: _174  and  _176
REMARK   70  A    between atoms: _176  and  _177
REMARK   71  A    between atoms: _176  and  _179
REMARK   72  A    between atoms: _179  and  _180
REMARK   73  A    between atoms: _180  and  _181
REMARK   74  A    between atoms: _186  and  _188
REMARK   75  A    between atoms: _188  and  _189
REMARK   76  A    between atoms: _188  and  _191
REMARK   77  A    between atoms: _191  and  _192
REMARK   78  A    between atoms: _196  and  _197
REMARK   79  A    between atoms: _202  and  _204
REMARK   80  A    between atoms: _204  and  _205
REMARK   81  A    between atoms: _204  and  _207
REMARK   82  A    between atoms: _207  and  _208
REMARK   83  A    between atoms: _213  and  _215
REMARK   84  A    between atoms: _215  and  _216
REMARK   85  A    between atoms: _215  and  _218
REMARK   86  A    between atoms: _218  and  _219
REMARK   87  A    between atoms: _225  and  _227
REMARK   88  A    between atoms: _227  and  _228
REMARK   89  A    between atoms: _227  and  _230
REMARK   90  A    between atoms: _230  and  _231
REMARK   91  A    between atoms: _234  and  _236
REMARK   92  A    between atoms: _236  and  _237
REMARK   93  A    between atoms: _236  and  _239
REMARK   94  A    between atoms: _239  and  _240
REMARK   95  A    between atoms: _245  and  _246
REMARK   96  A    between atoms: _248  and  _250
REMARK   97  A    between atoms: _250  and  _251
REMARK   98  A    between atoms: _250  and  _253
REMARK   99  A    between atoms: _256  and  _258
REMARK  100  A    between atoms: _258  and  _259
REMARK  101  A    between atoms: _258  and  _261
REMARK  102  A    between atoms: _263  and  _265
REMARK  103  A    between atoms: _265  and  _266
REMARK  104  A    between atoms: _269  and  _271
REMARK  105  A    between atoms: _271  and  _272
REMARK  106  A    between atoms: _271  and  _274
REMARK  107  A    between atoms: _277  and  _279
REMARK  108  A    between atoms: _279  and  _280
REMARK  109  A    between atoms: _279  and  _282
REMARK  110  A    between atoms: _285  and  _287
REMARK  111  A    between atoms: _287  and  _288
REMARK  112  A    between atoms: _287  and  _290
REMARK  113  A    between atoms: _290  and  _291
REMARK  114  A    between atoms: _294  and  _296
REMARK  115  A    between atoms: _296  and  _297
REMARK  116  A    between atoms: _296  and  _299
REMARK  117  A    between atoms: _299  and  _300
REMARK  118  A    between atoms: _303  and  _305
REMARK  119  A    between atoms: _305  and  _306
REMARK  120  A    between atoms: _305  and  _308
REMARK  121  A    between atoms: _311  and  _313
REMARK  122  A    between atoms: _313  and  _314
REMARK  123  A    between atoms: _313  and  _316
REMARK  124  A    between atoms: _319  and  _321
REMARK  125  A    between atoms: _321  and  _322
REMARK  126  A    between atoms: _325  and  _327
REMARK  127  A    between atoms: _327  and  _328
REMARK  128  A    between atoms: _327  and  _330
REMARK  129  A    between atoms: _330  and  _331
REMARK  130  A    between atoms: _335  and  _336
REMARK  131  A    between atoms: _341  and  _343
REMARK  132  A    between atoms: _343  and  _344
REMARK  133  A    between atoms: _343  and  _346
REMARK  134  A    between atoms: _346  and  _347
REMARK  135  A    between atoms: _350  and  _352
REMARK  136  A    between atoms: _352  and  _353
REMARK  137  A    between atoms: _356  and  _358
REMARK  138  A    between atoms: _358  and  _359
REMARK  139  A    between atoms: _358  and  _361
REMARK  140  A    between atoms: _361  and  _362
REMARK  141  A    between atoms: _367  and  _369
REMARK  142  A    between atoms: _369  and  _370
REMARK  143  A    between atoms: _372  and  _374
REMARK  144  A    between atoms: _374  and  _375
REMARK  145  A    between atoms: _374  and  _377
REMARK  146  A    between atoms: _380  and  _382
REMARK  147  A    between atoms: _382  and  _383
REMARK  148  A    between atoms: _382  and  _385
REMARK  149  A    between atoms: _385  and  _386
REMARK  150  A    between atoms: _389  and  _391
REMARK  151  A    between atoms: _391  and  _392
REMARK  152  A    between atoms: _391  and  _394
REMARK  153  A    between atoms: _394  and  _395
REMARK  154  A    between atoms: _398  and  _400
REMARK  155  A    between atoms: _400  and  _401
REMARK  156  A    between atoms: _400  and  _403
REMARK  157  A    between atoms: _403  and  _404
REMARK  158  A    between atoms: _407  and  _409
REMARK  159  A    between atoms: _409  and  _410
REMARK  160  A    between atoms: _409  and  _412
REMARK  161  A    between atoms: _412  and  _413
REMARK  162  A    between atoms: _418  and  _420
REMARK  163  A    between atoms: _420  and  _421
REMARK  164  A    between atoms: _420  and  _423
REMARK  165  A    between atoms: _423  and  _424
REMARK  166  A    between atoms: _424  and  _425
REMARK  167  A    between atoms: _430  and  _432
REMARK  168  A    between atoms: _432  and  _433
REMARK  169  A    between atoms: _432  and  _435
REMARK  170  A    between atoms: _435  and  _436
REMARK  171  A    between atoms: _436  and  _437
REMARK  172  A    between atoms: _437  and  _438
REMARK  173  A    between atoms: _447  and  _449
REMARK  174  A    between atoms: _449  and  _450
REMARK  175  A    between atoms: _449  and  _452
REMARK  176  A    between atoms: _452  and  _453
REMARK  177  A    between atoms: _453  and  _454
REMARK  178  A    between atoms: _457  and  _459
REMARK  179  A    between atoms: _459  and  _460
REMARK  180  A    between atoms: _459  and  _462
REMARK  181  A    between atoms: _462  and  _463
REMARK  182  A    between atoms: _463  and  _464
REMARK  183  A    between atoms: _464  and  _465
REMARK  184  A    between atoms: _465  and  _466
REMARK  185  A    between atoms: _470  and  _472
REMARK  186  A    between atoms: _472  and  _473
REMARK  187  A    between atoms: _475  and  _477
REMARK  188  A    between atoms: _477  and  _478
REMARK  189  A    between atoms: _481  and  _483
REMARK  190  A    between atoms: _483  and  _484
REMARK  191  A    between atoms: _483  and  _486
REMARK  192  A    between atoms: _486  and  _487
REMARK  193  A    between atoms: _487  and  _488
REMARK  194  A    between atoms: _493  and  _495
REMARK  195  A    between atoms: _495  and  _496
REMARK  196  A    between atoms: _499  and  _501
REMARK  197  A    between atoms: _501  and  _502
REMARK  198  A    between atoms: _501  and  _504
REMARK  199  A    between atoms: _504  and  _505
REMARK  200  A    between atoms: _508  and  _510
REMARK  201  A    between atoms: _510  and  _511
REMARK  202  A    between atoms: _510  and  _513
REMARK  203  A    between atoms: _516  and  _518
REMARK  204  A    between atoms: _518  and  _519
REMARK  205  A    between atoms: _522  and  _524
REMARK  206  A    between atoms: _524  and  _525
REMARK  207  A    between atoms: _528  and  _530
REMARK  208  A    between atoms: _530  and  _531
REMARK  209  A    between atoms: _530  and  _533
REMARK  210  A    between atoms: _533  and  _534
REMARK                            x       y       z     vdW  Elec       q    Type
REMARK                         _______ _______ _______ _____ _____    ______ ____
ROOT
ATOM      1  O   HOH     1      36.334  -0.367   1.387  0.00  0.00    +0.000 OA
ENDROOT
TORSDOF 0
REMARK  Name = ../refined-set-2016/2c94/2c94_pocket.pdb
REMARK  210 active torsions:
REMARK  status: ('A' for Active; 'I' for Inactive)
REMARK    1  A    between atoms: _1  and  _3
REMARK    2  A    between atoms: _3  and  _4
REMARK    3  A    between atoms: _7  and  _9
REMARK    4  A    between atoms: _9  and  _10
REMARK    5  A    between atoms: _9  and  _12
REMARK    6  A    between atoms: _12  and  _13
REMARK    7  A    between atoms: _15  and  _17
REMARK    8  A    between atoms: _17  and  _18
REMARK    9  A    between atoms: _17  and  _20
REMARK   10  A    between atoms: _20  and  _21
REMARK   11  A    between atoms: _23  and  _25
REMARK   12  A    between atoms: _25  and  _26
REMARK   13  A    between atoms: _25  and  _28
REMARK   14  A    between atoms: _28  and  _29
REMARK   15  A    between atoms: _41  and  _42
REMARK   16  A    between atoms: _41  and  _44
REMARK   17  A    between atoms: _44  and  _45
REMARK   18  A    between atoms: _50  and  _52
REMARK   19  A    between atoms: _52  and  _53
REMARK   20  A    between atoms: _52  and  _55
REMARK   21  A    between atoms: _57  and  _59
REMARK   22  A    between atoms: _59  and  _60
REMARK   23  A    between atoms: _59  and  _62
REMARK   24  A    between atoms: _65  and  _67
REMARK   25  A    between atoms: _67  and  _68
REMARK   26  A    between atoms: _67  and  _70
REMARK   27  A    between atoms: _70  and  _71
REMARK   28  A    between atoms: _74  and  _76
REMARK   29  A    between atoms: _76  and  _77
REMARK   30  A    between atoms: _79  and  _81
REMARK   31  A    between atoms: _81  and  _82
REMARK   32  A    between atoms: _85  and  _87
REMARK   33  A    between atoms: _87  and  _88
REMARK   34  A    between atoms: _87  and  _90
REMARK   35  A    between atoms: _90  and  _91
REMARK   36  A    between atoms: _94  and  _96
REMARK   37  A    between atoms: _96  and  _97
REMARK   38  A    between atoms: _96  and  _99
REMARK   39  A    between atoms: _99  and  _100
REMARK   40  A    between atoms: _100  and  _101
REMARK   41  A    between atoms: _104  and  _106
REMARK   42  A    between atoms: _106  and  _107
REMARK   43  A    between atoms: _106  and  _109
REMARK   44  A    between atoms: _109  and  _110
REMARK   45  A    between atoms: _113  and  _115
REMARK   46  A    between atoms: _115  and  _116
REMARK   47  A    between atoms: _115  and  _118
REMARK   48  A    between atoms: _118  and  _119
REMARK   49  A    between atoms: _122  and  _124
REMARK   50  A    between atoms: _124  and  _125
REMARK   51  A    between atoms: _127  and  _129
REMARK   52  A    between atoms: _129  and  _130
REMARK   53  A    between atoms: _129  and  _132
REMARK   54  A    between atoms: _135  and  _137
REMARK   55  A    between atoms: _137  and  _138
REMARK   56  A    between atoms: _137  and  _140
REMARK   57  A    between atoms: _143  and  _145
REMARK   58  A    between atoms: _145  and  _146
REMARK   59  A    between atoms: _145  and  _148
REMARK   60  A    between atoms: _148  and  _149
REMARK   61  A    between atoms: _152  and  _154
REMARK   62  A    between atoms: _154  and  _155
REMARK   63  A    between atoms: _154  and  _157
REMARK   64  A    between atoms: _157  and  _158
REMARK   65  A    between atoms: _158  and  _159
REMARK   66  A    between atoms: _159  and  _160
REMARK   67  A    between atoms: _169  and  _171
REMARK   68  A    between atoms: _171  and  _172
REMARK   69  A    between atoms: _174  and  _176
REMARK   70  A    between atoms: _176  and  _177
REMARK   71  A    between atoms: _176  and  _179
REMARK   72  A    between atoms: _179  and  _180
REMARK   73  A    between atoms: _180  and  _181
REMARK   74  A    between atoms: _186  and  _188
REMARK   75  A    between atoms: _188  and  _189
REMARK   76  A    between atoms: _188  and  _191
REMARK   77  A    between atoms: _191  and  _192
REMARK   78  A    between atoms: _196  and  _197
REMARK   79  A    between atoms: _202  and  _204
REMARK   80  A    between atoms: _204  and  _205
REMARK   81  A    between atoms: _204  and  _207
REMARK   82  A    between atoms: _207  and  _208
REMARK   83  A    between atoms: _213  and  _215
REMARK   84  A    between atoms: _215  and  _216
REMARK   85  A    between atoms: _215  and  _218
REMARK   86  A    between atoms: _218  and  _219
REMARK   87  A    between atoms: _225  and  _227
REMARK   88  A    between atoms: _227  and  _228
REMARK   89  A    between atoms: _227  and  _230
REMARK   90  A    between atoms: _230  and  _231
REMARK   91  A    between atoms: _234  and  _236
REMARK   92  A    between atoms: _236  and  _237
REMARK   93  A    between atoms: _236  and  _239
REMARK   94  A    between atoms: _239  and  _240
REMARK   95  A    between atoms: _245  and  _246
REMARK   96  A    between atoms: _248  and  _250
REMARK   97  A    between atoms: _250  and  _251
REMARK   98  A    between atoms: _250  and  _253
REMARK   99  A    between atoms: _256  and  _258
REMARK  100  A    between atoms: _258  and  _259
REMARK  101  A    between atoms: _258  and  _261
REMARK  102  A    between atoms: _263  and  _265
REMARK  103  A    between atoms: _265  and  _266
REMARK  104  A    between atoms: _269  and  _271
REMARK  105  A    between atoms: _271  and  _272
REMARK  106  A    between atoms: _271  and  _274
REMARK  107  A    between atoms: _277  and  _279
REMARK  108  A    between atoms: _279  and  _280
REMARK  109  A    between atoms: _279  and  _282
REMARK  110  A    between atoms: _285  and  _287
REMARK  111  A    between atoms: _287  and  _288
REMARK  112  A    between atoms: _287  and  _290
REMARK  113  A    between atoms: _290  and  _291
REMARK  114  A    between atoms: _294  and  _296
REMARK  115  A    between atoms: _296  and  _297
REMARK  116  A    between atoms: _296  and  _299
REMARK  117  A    between atoms: _299  and  _300
REMARK  118  A    between atoms: _303  and  _305
REMARK  119  A    between atoms: _305  and  _306
REMARK  120  A    between atoms: _305  and  _308
REMARK  121  A    between atoms: _311  and  _313
REMARK  122  A    between atoms: _313  and  _314
REMARK  123  A    between atoms: _313  and  _316
REMARK  124  A    between atoms: _319  and  _321
REMARK  125  A    between atoms: _321  and  _322
REMARK  126  A    between atoms: _325  and  _327
REMARK  127  A    between atoms: _327  and  _328
REMARK  128  A    between atoms: _327  and  _330
REMARK  129  A    between atoms: _330  and  _331
REMARK  130  A    between atoms: _335  and  _336
REMARK  131  A    between atoms: _341  and  _343
REMARK  132  A    between atoms: _343  and  _344
REMARK  133  A    between atoms: _343  and  _346
REMARK  134  A    between atoms: _346  and  _347
REMARK  135  A    between atoms: _350  and  _352
REMARK  136  A    between atoms: _352  and  _353
REMARK  137  A    between atoms: _356  and  _358
REMARK  138  A    between atoms: _358  and  _359
REMARK  139  A    between atoms: _358  and  _361
REMARK  140  A    between atoms: _361  and  _362
REMARK  141  A    between atoms: _367  and  _369
REMARK  142  A    between atoms: _369  and  _370
REMARK  143  A    between atoms: _372  and  _374
REMARK  144  A    between atoms: _374  and  _375
REMARK  145  A    between atoms: _374  and  _377
REMARK  146  A    between atoms: _380  and  _382
REMARK  147  A    between atoms: _382  and  _383
REMARK  148  A    between atoms: _382  and  _385
REMARK  149  A    between atoms: _385  and  _386
REMARK  150  A    between atoms: _389  and  _391
REMARK  151  A    between atoms: _391  and  _392
REMARK  152  A    between atoms: _391  and  _394
REMARK  153  A    between atoms: _394  and  _395
REMARK  154  A    between atoms: _398  and  _400
REMARK  155  A    between atoms: _400  and  _401
REMARK  156  A    between atoms: _400  and  _403
REMARK  157  A    between atoms: _403  and  _404
REMARK  158  A    between atoms: _407  and  _409
REMARK  159  A    between atoms: _409  and  _410
REMARK  160  A    between atoms: _409  and  _412
REMARK  161  A    between atoms: _412  and  _413
REMARK  162  A    between atoms: _418  and  _420
REMARK  163  A    between atoms: _420  and  _421
REMARK  164  A    between atoms: _420  and  _423
REMARK  165  A    between atoms: _423  and  _424
REMARK  166  A    between atoms: _424  and  _425
REMARK  167  A    between atoms: _430  and  _432
REMARK  168  A    between atoms: _432  and  _433
REMARK  169  A    between atoms: _432  and  _435
REMARK  170  A    between atoms: _435  and  _436
REMARK  171  A    between atoms: _436  and  _437
REMARK  172  A    between atoms: _437  and  _438
REMARK  173  A    between atoms: _447  and  _449
REMARK  174  A    between atoms: _449  and  _450
REMARK  175  A    between atoms: _449  and  _452
REMARK  176  A    between atoms: _452  and  _453
REMARK  177  A    between atoms: _453  and  _454
REMARK  178  A    between atoms: _457  and  _459
REMARK  179  A    between atoms: _459  and  _460
REMARK  180  A    between atoms: _459  and  _462
REMARK  181  A    between atoms: _462  and  _463
REMARK  182  A    between atoms: _463  and  _464
REMARK  183  A    between atoms: _464  and  _465
REMARK  184  A    between atoms: _465  and  _466
REMARK  185  A    between atoms: _470  and  _472
REMARK  186  A    between atoms: _472  and  _473
REMARK  187  A    between atoms: _475  and  _477
REMARK  188  A    between atoms: _477  and  _478
REMARK  189  A    between atoms: _481  and  _483
REMARK  190  A    between atoms: _483  and  _484
REMARK  191  A    between atoms: _483  and  _486
REMARK  192  A    between atoms: _486  and  _487
REMARK  193  A    between atoms: _487  and  _488
REMARK  194  A    between atoms: _493  and  _495
REMARK  195  A    between atoms: _495  and  _496
REMARK  196  A    between atoms: _499  and  _501
REMARK  197  A    between atoms: _501  and  _502
REMARK  198  A    between atoms: _501  and  _504
REMARK  199  A    between atoms: _504  and  _505
REMARK  200  A    between atoms: _508  and  _510
REMARK  201  A    between atoms: _510  and  _511
REMARK  202  A    between atoms: _510  and  _513
REMARK  203  A    between atoms: _516  and  _518
REMARK  204  A    between atoms: _518  and  _519
REMARK  205  A    between atoms: _522  and  _524
REMARK  206  A    between atoms: _524  and  _525
REMARK  207  A    between atoms: _528  and  _530
REMARK  208  A    between atoms: _530  and  _531
REMARK  209  A    between atoms: _530  and  _533
REMARK  210  A    between atoms: _533  and  _534
REMARK                            x       y       z     vdW  Elec       q    Type
REMARK                         _______ _______ _______ _____ _____    ______ ____
ROOT
ATOM      1  O   HOH     1      37.162  -2.709  -1.113  0.00  0.00    +0.000 OA
ENDROOT
TORSDOF 0
REMARK  Name = ../refined-set-2016/2c94/2c94_pocket.pdb
REMARK  210 active torsions:
REMARK  status: ('A' for Active; 'I' for Inactive)
REMARK    1  A    between atoms: _1  and  _3
REMARK    2  A    between atoms: _3  and  _4
REMARK    3  A    between atoms: _7  and  _9
REMARK    4  A    between atoms: _9  and  _10
REMARK    5  A    between atoms: _9  and  _12
REMARK    6  A    between atoms: _12  and  _13
REMARK    7  A    between atoms: _15  and  _17
REMARK    8  A    between atoms: _17  and  _18
REMARK    9  A    between atoms: _17  and  _20
REMARK   10  A    between atoms: _20  and  _21
REMARK   11  A    between atoms: _23  and  _25
REMARK   12  A    between atoms: _25  and  _26
REMARK   13  A    between atoms: _25  and  _28
REMARK   14  A    between atoms: _28  and  _29
REMARK   15  A    between atoms: _41  and  _42
REMARK   16  A    between atoms: _41  and  _44
REMARK   17  A    between atoms: _44  and  _45
REMARK   18  A    between atoms: _50  and  _52
REMARK   19  A    between atoms: _52  and  _53
REMARK   20  A    between atoms: _52  and  _55
REMARK   21  A    between atoms: _57  and  _59
REMARK   22  A    between atoms: _59  and  _60
REMARK   23  A    between atoms: _59  and  _62
REMARK   24  A    between atoms: _65  and  _67
REMARK   25  A    between atoms: _67  and  _68
REMARK   26  A    between atoms: _67  and  _70
REMARK   27  A    between atoms: _70  and  _71
REMARK   28  A    between atoms: _74  and  _76
REMARK   29  A    between atoms: _76  and  _77
REMARK   30  A    between atoms: _79  and  _81
REMARK   31  A    between atoms: _81  and  _82
REMARK   32  A    between atoms: _85  and  _87
REMARK   33  A    between atoms: _87  and  _88
REMARK   34  A    between atoms: _87  and  _90
REMARK   35  A    between atoms: _90  and  _91
REMARK   36  A    between atoms: _94  and  _96
REMARK   37  A    between atoms: _96  and  _97
REMARK   38  A    between atoms: _96  and  _99
REMARK   39  A    between atoms: _99  and  _100
REMARK   40  A    between atoms: _100  and  _101
REMARK   41  A    between atoms: _104  and  _106
REMARK   42  A    between atoms: _106  and  _107
REMARK   43  A    between atoms: _106  and  _109
REMARK   44  A    between atoms: _109  and  _110
REMARK   45  A    between atoms: _113  and  _115
REMARK   46  A    between atoms: _115  and  _116
REMARK   47  A    between atoms: _115  and  _118
REMARK   48  A    between atoms: _118  and  _119
REMARK   49  A    between atoms: _122  and  _124
REMARK   50  A    between atoms: _124  and  _125
REMARK   51  A    between atoms: _127  and  _129
REMARK   52  A    between atoms: _129  and  _130
REMARK   53  A    between atoms: _129  and  _132
REMARK   54  A    between atoms: _135  and  _137
REMARK   55  A    between atoms: _137  and  _138
REMARK   56  A    between atoms: _137  and  _140
REMARK   57  A    between atoms: _143  and  _145
REMARK   58  A    between atoms: _145  and  _146
REMARK   59  A    between atoms: _145  and  _148
REMARK   60  A    between atoms: _148  and  _149
REMARK   61  A    between atoms: _152  and  _154
REMARK   62  A    between atoms: _154  and  _155
REMARK   63  A    between atoms: _154  and  _157
REMARK   64  A    between atoms: _157  and  _158
REMARK   65  A    between atoms: _158  and  _159
REMARK   66  A    between atoms: _159  and  _160
REMARK   67  A    between atoms: _169  and  _171
REMARK   68  A    between atoms: _171  and  _172
REMARK   69  A    between atoms: _174  and  _176
REMARK   70  A    between atoms: _176  and  _177
REMARK   71  A    between atoms: _176  and  _179
REMARK   72  A    between atoms: _179  and  _180
REMARK   73  A    between atoms: _180  and  _181
REMARK   74  A    between atoms: _186  and  _188
REMARK   75  A    between atoms: _188  and  _189
REMARK   76  A    between atoms: _188  and  _191
REMARK   77  A    between atoms: _191  and  _192
REMARK   78  A    between atoms: _196  and  _197
REMARK   79  A    between atoms: _202  and  _204
REMARK   80  A    between atoms: _204  and  _205
REMARK   81  A    between atoms: _204  and  _207
REMARK   82  A    between atoms: _207  and  _208
REMARK   83  A    between atoms: _213  and  _215
REMARK   84  A    between atoms: _215  and  _216
REMARK   85  A    between atoms: _215  and  _218
REMARK   86  A    between atoms: _218  and  _219
REMARK   87  A    between atoms: _225  and  _227
REMARK   88  A    between atoms: _227  and  _228
REMARK   89  A    between atoms: _227  and  _230
REMARK   90  A    between atoms: _230  and  _231
REMARK   91  A    between atoms: _234  and  _236
REMARK   92  A    between atoms: _236  and  _237
REMARK   93  A    between atoms: _236  and  _239
REMARK   94  A    between atoms: _239  and  _240
REMARK   95  A    between atoms: _245  and  _246
REMARK   96  A    between atoms: _248  and  _250
REMARK   97  A    between atoms: _250  and  _251
REMARK   98  A    between atoms: _250  and  _253
REMARK   99  A    between atoms: _256  and  _258
REMARK  100  A    between atoms: _258  and  _259
REMARK  101  A    between atoms: _258  and  _261
REMARK  102  A    between atoms: _263  and  _265
REMARK  103  A    between atoms: _265  and  _266
REMARK  104  A    between atoms: _269  and  _271
REMARK  105  A    between atoms: _271  and  _272
REMARK  106  A    between atoms: _271  and  _274
REMARK  107  A    between atoms: _277  and  _279
REMARK  108  A    between atoms: _279  and  _280
REMARK  109  A    between atoms: _279  and  _282
REMARK  110  A    between atoms: _285  and  _287
REMARK  111  A    between atoms: _287  and  _288
REMARK  112  A    between atoms: _287  and  _290
REMARK  113  A    between atoms: _290  and  _291
REMARK  114  A    between atoms: _294  and  _296
REMARK  115  A    between atoms: _296  and  _297
REMARK  116  A    between atoms: _296  and  _299
REMARK  117  A    between atoms: _299  and  _300
REMARK  118  A    between atoms: _303  and  _305
REMARK  119  A    between atoms: _305  and  _306
REMARK  120  A    between atoms: _305  and  _308
REMARK  121  A    between atoms: _311  and  _313
REMARK  122  A    between atoms: _313  and  _314
REMARK  123  A    between atoms: _313  and  _316
REMARK  124  A    between atoms: _319  and  _321
REMARK  125  A    between atoms: _321  and  _322
REMARK  126  A    between atoms: _325  and  _327
REMARK  127  A    between atoms: _327  and  _328
REMARK  128  A    between atoms: _327  and  _330
REMARK  129  A    between atoms: _330  and  _331
REMARK  130  A    between atoms: _335  and  _336
REMARK  131  A    between atoms: _341  and  _343
REMARK  132  A    between atoms: _343  and  _344
REMARK  133  A    between atoms: _343  and  _346
REMARK  134  A    between atoms: _346  and  _347
REMARK  135  A    between atoms: _350  and  _352
REMARK  136  A    between atoms: _352  and  _353
REMARK  137  A    between atoms: _356  and  _358
REMARK  138  A    between atoms: _358  and  _359
REMARK  139  A    between atoms: _358  and  _361
REMARK  140  A    between atoms: _361  and  _362
REMARK  141  A    between atoms: _367  and  _369
REMARK  142  A    between atoms: _369  and  _370
REMARK  143  A    between atoms: _372  and  _374
REMARK  144  A    between atoms: _374  and  _375
REMARK  145  A    between atoms: _374  and  _377
REMARK  146  A    between atoms: _380  and  _382
REMARK  147  A    between atoms: _382  and  _383
REMARK  148  A    between atoms: _382  and  _385
REMARK  149  A    between atoms: _385  and  _386
REMARK  150  A    between atoms: _389  and  _391
REMARK  151  A    between atoms: _391  and  _392
REMARK  152  A    between atoms: _391  and  _394
REMARK  153  A    between atoms: _394  and  _395
REMARK  154  A    between atoms: _398  and  _400
REMARK  155  A    between atoms: _400  and  _401
REMARK  156  A    between atoms: _400  and  _403
REMARK  157  A    between atoms: _403  and  _404
REMARK  158  A    between atoms: _407  and  _409
REMARK  159  A    between atoms: _409  and  _410
REMARK  160  A    between atoms: _409  and  _412
REMARK  161  A    between atoms: _412  and  _413
REMARK  162  A    between atoms: _418  and  _420
REMARK  163  A    between atoms: _420  and  _421
REMARK  164  A    between atoms: _420  and  _423
REMARK  165  A    between atoms: _423  and  _424
REMARK  166  A    between atoms: _424  and  _425
REMARK  167  A    between atoms: _430  and  _432
REMARK  168  A    between atoms: _432  and  _433
REMARK  169  A    between atoms: _432  and  _435
REMARK  170  A    between atoms: _435  and  _436
REMARK  171  A    between atoms: _436  and  _437
REMARK  172  A    between atoms: _437  and  _438
REMARK  173  A    between atoms: _447  and  _449
REMARK  174  A    between atoms: _449  and  _450
REMARK  175  A    between atoms: _449  and  _452
REMARK  176  A    between atoms: _452  and  _453
REMARK  177  A    between atoms: _453  and  _454
REMARK  178  A    between atoms: _457  and  _459
REMARK  179  A    between atoms: _459  and  _460
REMARK  180  A    between atoms: _459  and  _462
REMARK  181  A    between atoms: _462  and  _463
REMARK  182  A    between atoms: _463  and  _464
REMARK  183  A    between atoms: _464  and  _465
REMARK  184  A    between atoms: _465  and  _466
REMARK  185  A    between atoms: _470  and  _472
REMARK  186  A    between atoms: _472  and  _473
REMARK  187  A    between atoms: _475  and  _477
REMARK  188  A    between atoms: _477  and  _478
REMARK  189  A    between atoms: _481  and  _483
REMARK  190  A    between atoms: _483  and  _484
REMARK  191  A    between atoms: _483  and  _486
REMARK  192  A    between atoms: _486  and  _487
REMARK  193  A    between atoms: _487  and  _488
REMARK  194  A    between atoms: _493  and  _495
REMARK  195  A    between atoms: _495  and  _496
REMARK  196  A    between atoms: _499  and  _501
REMARK  197  A    between atoms: _501  and  _502
REMARK  198  A    between atoms: _501  and  _504
REMARK  199  A    between atoms: _504  and  _505
REMARK  200  A    between atoms: _508  and  _510
REMARK  201  A    between atoms: _510  and  _511
REMARK  202  A    between atoms: _510  and  _513
REMARK  203  A    between atoms: _516  and  _518
REMARK  204  A    between atoms: _518  and  _519
REMARK  205  A    between atoms: _522  and  _524
REMARK  206  A    between atoms: _524  and  _525
REMARK  207  A    between atoms: _528  and  _530
REMARK  208  A    between atoms: _530  and  _531
REMARK  209  A    between atoms: _530  and  _533
REMARK  210  A    between atoms: _533  and  _534
REMARK                            x       y       z     vdW  Elec       q    Type
REMARK                         _______ _______ _______ _____ _____    ______ ____
ROOT
ATOM      1  O   HOH     1      42.297  -0.342  16.475  0.00  0.00    +0.000 OA
ENDROOT
TORSDOF 0
REMARK  Name = ../refined-set-2016/2c94/2c94_pocket.pdb
REMARK  210 active torsions:
REMARK  status: ('A' for Active; 'I' for Inactive)
REMARK    1  A    between atoms: _1  and  _3
REMARK    2  A    between atoms: _3  and  _4
REMARK    3  A    between atoms: _7  and  _9
REMARK    4  A    between atoms: _9  and  _10
REMARK    5  A    between atoms: _9  and  _12
REMARK    6  A    between atoms: _12  and  _13
REMARK    7  A    between atoms: _15  and  _17
REMARK    8  A    between atoms: _17  and  _18
REMARK    9  A    between atoms: _17  and  _20
REMARK   10  A    between atoms: _20  and  _21
REMARK   11  A    between atoms: _23  and  _25
REMARK   12  A    between atoms: _25  and  _26
REMARK   13  A    between atoms: _25  and  _28
REMARK   14  A    between atoms: _28  and  _29
REMARK   15  A    between atoms: _41  and  _42
REMARK   16  A    between atoms: _41  and  _44
REMARK   17  A    between atoms: _44  and  _45
REMARK   18  A    between atoms: _50  and  _52
REMARK   19  A    between atoms: _52  and  _53
REMARK   20  A    between atoms: _52  and  _55
REMARK   21  A    between atoms: _57  and  _59
REMARK   22  A    between atoms: _59  and  _60
REMARK   23  A    between atoms: _59  and  _62
REMARK   24  A    between atoms: _65  and  _67
REMARK   25  A    between atoms: _67  and  _68
REMARK   26  A    between atoms: _67  and  _70
REMARK   27  A    between atoms: _70  and  _71
REMARK   28  A    between atoms: _74  and  _76
REMARK   29  A    between atoms: _76  and  _77
REMARK   30  A    between atoms: _79  and  _81
REMARK   31  A    between atoms: _81  and  _82
REMARK   32  A    between atoms: _85  and  _87
REMARK   33  A    between atoms: _87  and  _88
REMARK   34  A    between atoms: _87  and  _90
REMARK   35  A    between atoms: _90  and  _91
REMARK   36  A    between atoms: _94  and  _96
REMARK   37  A    between atoms: _96  and  _97
REMARK   38  A    between atoms: _96  and  _99
REMARK   39  A    between atoms: _99  and  _100
REMARK   40  A    between atoms: _100  and  _101
REMARK   41  A    between atoms: _104  and  _106
REMARK   42  A    between atoms: _106  and  _107
REMARK   43  A    between atoms: _106  and  _109
REMARK   44  A    between atoms: _109  and  _110
REMARK   45  A    between atoms: _113  and  _115
REMARK   46  A    between atoms: _115  and  _116
REMARK   47  A    between atoms: _115  and  _118
REMARK   48  A    between atoms: _118  and  _119
REMARK   49  A    between atoms: _122  and  _124
REMARK   50  A    between atoms: _124  and  _125
REMARK   51  A    between atoms: _127  and  _129
REMARK   52  A    between atoms: _129  and  _130
REMARK   53  A    between atoms: _129  and  _132
REMARK   54  A    between atoms: _135  and  _137
REMARK   55  A    between atoms: _137  and  _138
REMARK   56  A    between atoms: _137  and  _140
REMARK   57  A    between atoms: _143  and  _145
REMARK   58  A    between atoms: _145  and  _146
REMARK   59  A    between atoms: _145  and  _148
REMARK   60  A    between atoms: _148  and  _149
REMARK   61  A    between atoms: _152  and  _154
REMARK   62  A    between atoms: _154  and  _155
REMARK   63  A    between atoms: _154  and  _157
REMARK   64  A    between atoms: _157  and  _158
REMARK   65  A    between atoms: _158  and  _159
REMARK   66  A    between atoms: _159  and  _160
REMARK   67  A    between atoms: _169  and  _171
REMARK   68  A    between atoms: _171  and  _172
REMARK   69  A    between atoms: _174  and  _176
REMARK   70  A    between atoms: _176  and  _177
REMARK   71  A    between atoms: _176  and  _179
REMARK   72  A    between atoms: _179  and  _180
REMARK   73  A    between atoms: _180  and  _181
REMARK   74  A    between atoms: _186  and  _188
REMARK   75  A    between atoms: _188  and  _189
REMARK   76  A    between atoms: _188  and  _191
REMARK   77  A    between atoms: _191  and  _192
REMARK   78  A    between atoms: _196  and  _197
REMARK   79  A    between atoms: _202  and  _204
REMARK   80  A    between atoms: _204  and  _205
REMARK   81  A    between atoms: _204  and  _207
REMARK   82  A    between atoms: _207  and  _208
REMARK   83  A    between atoms: _213  and  _215
REMARK   84  A    between atoms: _215  and  _216
REMARK   85  A    between atoms: _215  and  _218
REMARK   86  A    between atoms: _218  and  _219
REMARK   87  A    between atoms: _225  and  _227
REMARK   88  A    between atoms: _227  and  _228
REMARK   89  A    between atoms: _227  and  _230
REMARK   90  A    between atoms: _230  and  _231
REMARK   91  A    between atoms: _234  and  _236
REMARK   92  A    between atoms: _236  and  _237
REMARK   93  A    between atoms: _236  and  _239
REMARK   94  A    between atoms: _239  and  _240
REMARK   95  A    between atoms: _245  and  _246
REMARK   96  A    between atoms: _248  and  _250
REMARK   97  A    between atoms: _250  and  _251
REMARK   98  A    between atoms: _250  and  _253
REMARK   99  A    between atoms: _256  and  _258
REMARK  100  A    between atoms: _258  and  _259
REMARK  101  A    between atoms: _258  and  _261
REMARK  102  A    between atoms: _263  and  _265
REMARK  103  A    between atoms: _265  and  _266
REMARK  104  A    between atoms: _269  and  _271
REMARK  105  A    between atoms: _271  and  _272
REMARK  106  A    between atoms: _271  and  _274
REMARK  107  A    between atoms: _277  and  _279
REMARK  108  A    between atoms: _279  and  _280
REMARK  109  A    between atoms: _279  and  _282
REMARK  110  A    between atoms: _285  and  _287
REMARK  111  A    between atoms: _287  and  _288
REMARK  112  A    between atoms: _287  and  _290
REMARK  113  A    between atoms: _290  and  _291
REMARK  114  A    between atoms: _294  and  _296
REMARK  115  A    between atoms: _296  and  _297
REMARK  116  A    between atoms: _296  and  _299
REMARK  117  A    between atoms: _299  and  _300
REMARK  118  A    between atoms: _303  and  _305
REMARK  119  A    between atoms: _305  and  _306
REMARK  120  A    between atoms: _305  and  _308
REMARK  121  A    between atoms: _311  and  _313
REMARK  122  A    between atoms: _313  and  _314
REMARK  123  A    between atoms: _313  and  _316
REMARK  124  A    between atoms: _319  and  _321
REMARK  125  A    between atoms: _321  and  _322
REMARK  126  A    between atoms: _325  and  _327
REMARK  127  A    between atoms: _327  and  _328
REMARK  128  A    between atoms: _327  and  _330
REMARK  129  A    between atoms: _330  and  _331
REMARK  130  A    between atoms: _335  and  _336
REMARK  131  A    between atoms: _341  and  _343
REMARK  132  A    between atoms: _343  and  _344
REMARK  133  A    between atoms: _343  and  _346
REMARK  134  A    between atoms: _346  and  _347
REMARK  135  A    between atoms: _350  and  _352
REMARK  136  A    between atoms: _352  and  _353
REMARK  137  A    between atoms: _356  and  _358
REMARK  138  A    between atoms: _358  and  _359
REMARK  139  A    between atoms: _358  and  _361
REMARK  140  A    between atoms: _361  and  _362
REMARK  141  A    between atoms: _367  and  _369
REMARK  142  A    between atoms: _369  and  _370
REMARK  143  A    between atoms: _372  and  _374
REMARK  144  A    between atoms: _374  and  _375
REMARK  145  A    between atoms: _374  and  _377
REMARK  146  A    between atoms: _380  and  _382
REMARK  147  A    between atoms: _382  and  _383
REMARK  148  A    between atoms: _382  and  _385
REMARK  149  A    between atoms: _385  and  _386
REMARK  150  A    between atoms: _389  and  _391
REMARK  151  A    between atoms: _391  and  _392
REMARK  152  A    between atoms: _391  and  _394
REMARK  153  A    between atoms: _394  and  _395
REMARK  154  A    between atoms: _398  and  _400
REMARK  155  A    between atoms: _400  and  _401
REMARK  156  A    between atoms: _400  and  _403
REMARK  157  A    between atoms: _403  and  _404
REMARK  158  A    between atoms: _407  and  _409
REMARK  159  A    between atoms: _409  and  _410
REMARK  160  A    between atoms: _409  and  _412
REMARK  161  A    between atoms: _412  and  _413
REMARK  162  A    between atoms: _418  and  _420
REMARK  163  A    between atoms: _420  and  _421
REMARK  164  A    between atoms: _420  and  _423
REMARK  165  A    between atoms: _423  and  _424
REMARK  166  A    between atoms: _424  and  _425
REMARK  167  A    between atoms: _430  and  _432
REMARK  168  A    between atoms: _432  and  _433
REMARK  169  A    between atoms: _432  and  _435
REMARK  170  A    between atoms: _435  and  _436
REMARK  171  A    between atoms: _436  and  _437
REMARK  172  A    between atoms: _437  and  _438
REMARK  173  A    between atoms: _447  and  _449
REMARK  174  A    between atoms: _449  and  _450
REMARK  175  A    between atoms: _449  and  _452
REMARK  176  A    between atoms: _452  and  _453
REMARK  177  A    between atoms: _453  and  _454
REMARK  178  A    between atoms: _457  and  _459
REMARK  179  A    between atoms: _459  and  _460
REMARK  180  A    between atoms: _459  and  _462
REMARK  181  A    between atoms: _462  and  _463
REMARK  182  A    between atoms: _463  and  _464
REMARK  183  A    between atoms: _464  and  _465
REMARK  184  A    between atoms: _465  and  _466
REMARK  185  A    between atoms: _470  and  _472
REMARK  186  A    between atoms: _472  and  _473
REMARK  187  A    between atoms: _475  and  _477
REMARK  188  A    between atoms: _477  and  _478
REMARK  189  A    between atoms: _481  and  _483
REMARK  190  A    between atoms: _483  and  _484
REMARK  191  A    between atoms: _483  and  _486
REMARK  192  A    between atoms: _486  and  _487
REMARK  193  A    between atoms: _487  and  _488
REMARK  194  A    between atoms: _493  and  _495
REMARK  195  A    between atoms: _495  and  _496
REMARK  196  A    between atoms: _499  and  _501
REMARK  197  A    between atoms: _501  and  _502
REMARK  198  A    between atoms: _501  and  _504
REMARK  199  A    between atoms: _504  and  _505
REMARK  200  A    between atoms: _508  and  _510
REMARK  201  A    between atoms: _510  and  _511
REMARK  202  A    between atoms: _510  and  _513
REMARK  203  A    between atoms: _516  and  _518
REMARK  204  A    between atoms: _518  and  _519
REMARK  205  A    between atoms: _522  and  _524
REMARK  206  A    between atoms: _524  and  _525
REMARK  207  A    between atoms: _528  and  _530
REMARK  208  A    between atoms: _530  and  _531
REMARK  209  A    between atoms: _530  and  _533
REMARK  210  A    between atoms: _533  and  _534
REMARK                            x       y       z     vdW  Elec       q    Type
REMARK                         _______ _______ _______ _____ _____    ______ ____
ROOT
ATOM      1  O   HOH     1      38.989  -0.699  17.486  0.00  0.00    +0.000 OA
ENDROOT
TORSDOF 0
REMARK  Name = ../refined-set-2016/2c94/2c94_pocket.pdb
REMARK  210 active torsions:
REMARK  status: ('A' for Active; 'I' for Inactive)
REMARK    1  A    between atoms: _1  and  _3
REMARK    2  A    between atoms: _3  and  _4
REMARK    3  A    between atoms: _7  and  _9
REMARK    4  A    between atoms: _9  and  _10
REMARK    5  A    between atoms: _9  and  _12
REMARK    6  A    between atoms: _12  and  _13
REMARK    7  A    between atoms: _15  and  _17
REMARK    8  A    between atoms: _17  and  _18
REMARK    9  A    between atoms: _17  and  _20
REMARK   10  A    between atoms: _20  and  _21
REMARK   11  A    between atoms: _23  and  _25
REMARK   12  A    between atoms: _25  and  _26
REMARK   13  A    between atoms: _25  and  _28
REMARK   14  A    between atoms: _28  and  _29
REMARK   15  A    between atoms: _41  and  _42
REMARK   16  A    between atoms: _41  and  _44
REMARK   17  A    between atoms: _44  and  _45
REMARK   18  A    between atoms: _50  and  _52
REMARK   19  A    between atoms: _52  and  _53
REMARK   20  A    between atoms: _52  and  _55
REMARK   21  A    between atoms: _57  and  _59
REMARK   22  A    between atoms: _59  and  _60
REMARK   23  A    between atoms: _59  and  _62
REMARK   24  A    between atoms: _65  and  _67
REMARK   25  A    between atoms: _67  and  _68
REMARK   26  A    between atoms: _67  and  _70
REMARK   27  A    between atoms: _70  and  _71
REMARK   28  A    between atoms: _74  and  _76
REMARK   29  A    between atoms: _76  and  _77
REMARK   30  A    between atoms: _79  and  _81
REMARK   31  A    between atoms: _81  and  _82
REMARK   32  A    between atoms: _85  and  _87
REMARK   33  A    between atoms: _87  and  _88
REMARK   34  A    between atoms: _87  and  _90
REMARK   35  A    between atoms: _90  and  _91
REMARK   36  A    between atoms: _94  and  _96
REMARK   37  A    between atoms: _96  and  _97
REMARK   38  A    between atoms: _96  and  _99
REMARK   39  A    between atoms: _99  and  _100
REMARK   40  A    between atoms: _100  and  _101
REMARK   41  A    between atoms: _104  and  _106
REMARK   42  A    between atoms: _106  and  _107
REMARK   43  A    between atoms: _106  and  _109
REMARK   44  A    between atoms: _109  and  _110
REMARK   45  A    between atoms: _113  and  _115
REMARK   46  A    between atoms: _115  and  _116
REMARK   47  A    between atoms: _115  and  _118
REMARK   48  A    between atoms: _118  and  _119
REMARK   49  A    between atoms: _122  and  _124
REMARK   50  A    between atoms: _124  and  _125
REMARK   51  A    between atoms: _127  and  _129
REMARK   52  A    between atoms: _129  and  _130
REMARK   53  A    between atoms: _129  and  _132
REMARK   54  A    between atoms: _135  and  _137
REMARK   55  A    between atoms: _137  and  _138
REMARK   56  A    between atoms: _137  and  _140
REMARK   57  A    between atoms: _143  and  _145
REMARK   58  A    between atoms: _145  and  _146
REMARK   59  A    between atoms: _145  and  _148
REMARK   60  A    between atoms: _148  and  _149
REMARK   61  A    between atoms: _152  and  _154
REMARK   62  A    between atoms: _154  and  _155
REMARK   63  A    between atoms: _154  and  _157
REMARK   64  A    between atoms: _157  and  _158
REMARK   65  A    between atoms: _158  and  _159
REMARK   66  A    between atoms: _159  and  _160
REMARK   67  A    between atoms: _169  and  _171
REMARK   68  A    between atoms: _171  and  _172
REMARK   69  A    between atoms: _174  and  _176
REMARK   70  A    between atoms: _176  and  _177
REMARK   71  A    between atoms: _176  and  _179
REMARK   72  A    between atoms: _179  and  _180
REMARK   73  A    between atoms: _180  and  _181
REMARK   74  A    between atoms: _186  and  _188
REMARK   75  A    between atoms: _188  and  _189
REMARK   76  A    between atoms: _188  and  _191
REMARK   77  A    between atoms: _191  and  _192
REMARK   78  A    between atoms: _196  and  _197
REMARK   79  A    between atoms: _202  and  _204
REMARK   80  A    between atoms: _204  and  _205
REMARK   81  A    between atoms: _204  and  _207
REMARK   82  A    between atoms: _207  and  _208
REMARK   83  A    between atoms: _213  and  _215
REMARK   84  A    between atoms: _215  and  _216
REMARK   85  A    between atoms: _215  and  _218
REMARK   86  A    between atoms: _218  and  _219
REMARK   87  A    between atoms: _225  and  _227
REMARK   88  A    between atoms: _227  and  _228
REMARK   89  A    between atoms: _227  and  _230
REMARK   90  A    between atoms: _230  and  _231
REMARK   91  A    between atoms: _234  and  _236
REMARK   92  A    between atoms: _236  and  _237
REMARK   93  A    between atoms: _236  and  _239
REMARK   94  A    between atoms: _239  and  _240
REMARK   95  A    between atoms: _245  and  _246
REMARK   96  A    between atoms: _248  and  _250
REMARK   97  A    between atoms: _250  and  _251
REMARK   98  A    between atoms: _250  and  _253
REMARK   99  A    between atoms: _256  and  _258
REMARK  100  A    between atoms: _258  and  _259
REMARK  101  A    between atoms: _258  and  _261
REMARK  102  A    between atoms: _263  and  _265
REMARK  103  A    between atoms: _265  and  _266
REMARK  104  A    between atoms: _269  and  _271
REMARK  105  A    between atoms: _271  and  _272
REMARK  106  A    between atoms: _271  and  _274
REMARK  107  A    between atoms: _277  and  _279
REMARK  108  A    between atoms: _279  and  _280
REMARK  109  A    between atoms: _279  and  _282
REMARK  110  A    between atoms: _285  and  _287
REMARK  111  A    between atoms: _287  and  _288
REMARK  112  A    between atoms: _287  and  _290
REMARK  113  A    between atoms: _290  and  _291
REMARK  114  A    between atoms: _294  and  _296
REMARK  115  A    between atoms: _296  and  _297
REMARK  116  A    between atoms: _296  and  _299
REMARK  117  A    between atoms: _299  and  _300
REMARK  118  A    between atoms: _303  and  _305
REMARK  119  A    between atoms: _305  and  _306
REMARK  120  A    between atoms: _305  and  _308
REMARK  121  A    between atoms: _311  and  _313
REMARK  122  A    between atoms: _313  and  _314
REMARK  123  A    between atoms: _313  and  _316
REMARK  124  A    between atoms: _319  and  _321
REMARK  125  A    between atoms: _321  and  _322
REMARK  126  A    between atoms: _325  and  _327
REMARK  127  A    between atoms: _327  and  _328
REMARK  128  A    between atoms: _327  and  _330
REMARK  129  A    between atoms: _330  and  _331
REMARK  130  A    between atoms: _335  and  _336
REMARK  131  A    between atoms: _341  and  _343
REMARK  132  A    between atoms: _343  and  _344
REMARK  133  A    between atoms: _343  and  _346
REMARK  134  A    between atoms: _346  and  _347
REMARK  135  A    between atoms: _350  and  _352
REMARK  136  A    between atoms: _352  and  _353
REMARK  137  A    between atoms: _356  and  _358
REMARK  138  A    between atoms: _358  and  _359
REMARK  139  A    between atoms: _358  and  _361
REMARK  140  A    between atoms: _361  and  _362
REMARK  141  A    between atoms: _367  and  _369
REMARK  142  A    between atoms: _369  and  _370
REMARK  143  A    between atoms: _372  and  _374
REMARK  144  A    between atoms: _374  and  _375
REMARK  145  A    between atoms: _374  and  _377
REMARK  146  A    between atoms: _380  and  _382
REMARK  147  A    between atoms: _382  and  _383
REMARK  148  A    between atoms: _382  and  _385
REMARK  149  A    between atoms: _385  and  _386
REMARK  150  A    between atoms: _389  and  _391
REMARK  151  A    between atoms: _391  and  _392
REMARK  152  A    between atoms: _391  and  _394
REMARK  153  A    between atoms: _394  and  _395
REMARK  154  A    between atoms: _398  and  _400
REMARK  155  A    between atoms: _400  and  _401
REMARK  156  A    between atoms: _400  and  _403
REMARK  157  A    between atoms: _403  and  _404
REMARK  158  A    between atoms: _407  and  _409
REMARK  159  A    between atoms: _409  and  _410
REMARK  160  A    between atoms: _409  and  _412
REMARK  161  A    between atoms: _412  and  _413
REMARK  162  A    between atoms: _418  and  _420
REMARK  163  A    between atoms: _420  and  _421
REMARK  164  A    between atoms: _420  and  _423
REMARK  165  A    between atoms: _423  and  _424
REMARK  166  A    between atoms: _424  and  _425
REMARK  167  A    between atoms: _430  and  _432
REMARK  168  A    between atoms: _432  and  _433
REMARK  169  A    between atoms: _432  and  _435
REMARK  170  A    between atoms: _435  and  _436
REMARK  171  A    between atoms: _436  and  _437
REMARK  172  A    between atoms: _437  and  _438
REMARK  173  A    between atoms: _447  and  _449
REMARK  174  A    between atoms: _449  and  _450
REMARK  175  A    between atoms: _449  and  _452
REMARK  176  A    between atoms: _452  and  _453
REMARK  177  A    between atoms: _453  and  _454
REMARK  178  A    between atoms: _457  and  _459
REMARK  179  A    between atoms: _459  and  _460
REMARK  180  A    between atoms: _459  and  _462
REMARK  181  A    between atoms: _462  and  _463
REMARK  182  A    between atoms: _463  and  _464
REMARK  183  A    between atoms: _464  and  _465
REMARK  184  A    between atoms: _465  and  _466
REMARK  185  A    between atoms: _470  and  _472
REMARK  186  A    between atoms: _472  and  _473
REMARK  187  A    between atoms: _475  and  _477
REMARK  188  A    between atoms: _477  and  _478
REMARK  189  A    between atoms: _481  and  _483
REMARK  190  A    between atoms: _483  and  _484
REMARK  191  A    between atoms: _483  and  _486
REMARK  192  A    between atoms: _486  and  _487
REMARK  193  A    between atoms: _487  and  _488
REMARK  194  A    between atoms: _493  and  _495
REMARK  195  A    between atoms: _495  and  _496
REMARK  196  A    between atoms: _499  and  _501
REMARK  197  A    between atoms: _501  and  _502
REMARK  198  A    between atoms: _501  and  _504
REMARK  199  A    between atoms: _504  and  _505
REMARK  200  A    between atoms: _508  and  _510
REMARK  201  A    between atoms: _510  and  _511
REMARK  202  A    between atoms: _510  and  _513
REMARK  203  A    between atoms: _516  and  _518
REMARK  204  A    between atoms: _518  and  _519
REMARK  205  A    between atoms: _522  and  _524
REMARK  206  A    between atoms: _524  and  _525
REMARK  207  A    between atoms: _528  and  _530
REMARK  208  A    between atoms: _530  and  _531
REMARK  209  A    between atoms: _530  and  _533
REMARK  210  A    between atoms: _533  and  _534
REMARK                            x       y       z     vdW  Elec       q    Type
REMARK                         _______ _______ _______ _____ _____    ______ ____
ROOT
ATOM      1  O   HOH     1      37.386   2.725  14.738  0.00  0.00    +0.000 OA
ENDROOT
TORSDOF 0
REMARK  Name = ../refined-set-2016/2c94/2c94_pocket.pdb
REMARK  210 active torsions:
REMARK  status: ('A' for Active; 'I' for Inactive)
REMARK    1  A    between atoms: _1  and  _3
REMARK    2  A    between atoms: _3  and  _4
REMARK    3  A    between atoms: _7  and  _9
REMARK    4  A    between atoms: _9  and  _10
REMARK    5  A    between atoms: _9  and  _12
REMARK    6  A    between atoms: _12  and  _13
REMARK    7  A    between atoms: _15  and  _17
REMARK    8  A    between atoms: _17  and  _18
REMARK    9  A    between atoms: _17  and  _20
REMARK   10  A    between atoms: _20  and  _21
REMARK   11  A    between atoms: _23  and  _25
REMARK   12  A    between atoms: _25  and  _26
REMARK   13  A    between atoms: _25  and  _28
REMARK   14  A    between atoms: _28  and  _29
REMARK   15  A    between atoms: _41  and  _42
REMARK   16  A    between atoms: _41  and  _44
REMARK   17  A    between atoms: _44  and  _45
REMARK   18  A    between atoms: _50  and  _52
REMARK   19  A    between atoms: _52  and  _53
REMARK   20  A    between atoms: _52  and  _55
REMARK   21  A    between atoms: _57  and  _59
REMARK   22  A    between atoms: _59  and  _60
REMARK   23  A    between atoms: _59  and  _62
REMARK   24  A    between atoms: _65  and  _67
REMARK   25  A    between atoms: _67  and  _68
REMARK   26  A    between atoms: _67  and  _70
REMARK   27  A    between atoms: _70  and  _71
REMARK   28  A    between atoms: _74  and  _76
REMARK   29  A    between atoms: _76  and  _77
REMARK   30  A    between atoms: _79  and  _81
REMARK   31  A    between atoms: _81  and  _82
REMARK   32  A    between atoms: _85  and  _87
REMARK   33  A    between atoms: _87  and  _88
REMARK   34  A    between atoms: _87  and  _90
REMARK   35  A    between atoms: _90  and  _91
REMARK   36  A    between atoms: _94  and  _96
REMARK   37  A    between atoms: _96  and  _97
REMARK   38  A    between atoms: _96  and  _99
REMARK   39  A    between atoms: _99  and  _100
REMARK   40  A    between atoms: _100  and  _101
REMARK   41  A    between atoms: _104  and  _106
REMARK   42  A    between atoms: _106  and  _107
REMARK   43  A    between atoms: _106  and  _109
REMARK   44  A    between atoms: _109  and  _110
REMARK   45  A    between atoms: _113  and  _115
REMARK   46  A    between atoms: _115  and  _116
REMARK   47  A    between atoms: _115  and  _118
REMARK   48  A    between atoms: _118  and  _119
REMARK   49  A    between atoms: _122  and  _124
REMARK   50  A    between atoms: _124  and  _125
REMARK   51  A    between atoms: _127  and  _129
REMARK   52  A    between atoms: _129  and  _130
REMARK   53  A    between atoms: _129  and  _132
REMARK   54  A    between atoms: _135  and  _137
REMARK   55  A    between atoms: _137  and  _138
REMARK   56  A    between atoms: _137  and  _140
REMARK   57  A    between atoms: _143  and  _145
REMARK   58  A    between atoms: _145  and  _146
REMARK   59  A    between atoms: _145  and  _148
REMARK   60  A    between atoms: _148  and  _149
REMARK   61  A    between atoms: _152  and  _154
REMARK   62  A    between atoms: _154  and  _155
REMARK   63  A    between atoms: _154  and  _157
REMARK   64  A    between atoms: _157  and  _158
REMARK   65  A    between atoms: _158  and  _159
REMARK   66  A    between atoms: _159  and  _160
REMARK   67  A    between atoms: _169  and  _171
REMARK   68  A    between atoms: _171  and  _172
REMARK   69  A    between atoms: _174  and  _176
REMARK   70  A    between atoms: _176  and  _177
REMARK   71  A    between atoms: _176  and  _179
REMARK   72  A    between atoms: _179  and  _180
REMARK   73  A    between atoms: _180  and  _181
REMARK   74  A    between atoms: _186  and  _188
REMARK   75  A    between atoms: _188  and  _189
REMARK   76  A    between atoms: _188  and  _191
REMARK   77  A    between atoms: _191  and  _192
REMARK   78  A    between atoms: _196  and  _197
REMARK   79  A    between atoms: _202  and  _204
REMARK   80  A    between atoms: _204  and  _205
REMARK   81  A    between atoms: _204  and  _207
REMARK   82  A    between atoms: _207  and  _208
REMARK   83  A    between atoms: _213  and  _215
REMARK   84  A    between atoms: _215  and  _216
REMARK   85  A    between atoms: _215  and  _218
REMARK   86  A    between atoms: _218  and  _219
REMARK   87  A    between atoms: _225  and  _227
REMARK   88  A    between atoms: _227  and  _228
REMARK   89  A    between atoms: _227  and  _230
REMARK   90  A    between atoms: _230  and  _231
REMARK   91  A    between atoms: _234  and  _236
REMARK   92  A    between atoms: _236  and  _237
REMARK   93  A    between atoms: _236  and  _239
REMARK   94  A    between atoms: _239  and  _240
REMARK   95  A    between atoms: _245  and  _246
REMARK   96  A    between atoms: _248  and  _250
REMARK   97  A    between atoms: _250  and  _251
REMARK   98  A    between atoms: _250  and  _253
REMARK   99  A    between atoms: _256  and  _258
REMARK  100  A    between atoms: _258  and  _259
REMARK  101  A    between atoms: _258  and  _261
REMARK  102  A    between atoms: _263  and  _265
REMARK  103  A    between atoms: _265  and  _266
REMARK  104  A    between atoms: _269  and  _271
REMARK  105  A    between atoms: _271  and  _272
REMARK  106  A    between atoms: _271  and  _274
REMARK  107  A    between atoms: _277  and  _279
REMARK  108  A    between atoms: _279  and  _280
REMARK  109  A    between atoms: _279  and  _282
REMARK  110  A    between atoms: _285  and  _287
REMARK  111  A    between atoms: _287  and  _288
REMARK  112  A    between atoms: _287  and  _290
REMARK  113  A    between atoms: _290  and  _291
REMARK  114  A    between atoms: _294  and  _296
REMARK  115  A    between atoms: _296  and  _297
REMARK  116  A    between atoms: _296  and  _299
REMARK  117  A    between atoms: _299  and  _300
REMARK  118  A    between atoms: _303  and  _305
REMARK  119  A    between atoms: _305  and  _306
REMARK  120  A    between atoms: _305  and  _308
REMARK  121  A    between atoms: _311  and  _313
REMARK  122  A    between atoms: _313  and  _314
REMARK  123  A    between atoms: _313  and  _316
REMARK  124  A    between atoms: _319  and  _321
REMARK  125  A    between atoms: _321  and  _322
REMARK  126  A    between atoms: _325  and  _327
REMARK  127  A    between atoms: _327  and  _328
REMARK  128  A    between atoms: _327  and  _330
REMARK  129  A    between atoms: _330  and  _331
REMARK  130  A    between atoms: _335  and  _336
REMARK  131  A    between atoms: _341  and  _343
REMARK  132  A    between atoms: _343  and  _344
REMARK  133  A    between atoms: _343  and  _346
REMARK  134  A    between atoms: _346  and  _347
REMARK  135  A    between atoms: _350  and  _352
REMARK  136  A    between atoms: _352  and  _353
REMARK  137  A    between atoms: _356  and  _358
REMARK  138  A    between atoms: _358  and  _359
REMARK  139  A    between atoms: _358  and  _361
REMARK  140  A    between atoms: _361  and  _362
REMARK  141  A    between atoms: _367  and  _369
REMARK  142  A    between atoms: _369  and  _370
REMARK  143  A    between atoms: _372  and  _374
REMARK  144  A    between atoms: _374  and  _375
REMARK  145  A    between atoms: _374  and  _377
REMARK  146  A    between atoms: _380  and  _382
REMARK  147  A    between atoms: _382  and  _383
REMARK  148  A    between atoms: _382  and  _385
REMARK  149  A    between atoms: _385  and  _386
REMARK  150  A    between atoms: _389  and  _391
REMARK  151  A    between atoms: _391  and  _392
REMARK  152  A    between atoms: _391  and  _394
REMARK  153  A    between atoms: _394  and  _395
REMARK  154  A    between atoms: _398  and  _400
REMARK  155  A    between atoms: _400  and  _401
REMARK  156  A    between atoms: _400  and  _403
REMARK  157  A    between atoms: _403  and  _404
REMARK  158  A    between atoms: _407  and  _409
REMARK  159  A    between atoms: _409  and  _410
REMARK  160  A    between atoms: _409  and  _412
REMARK  161  A    between atoms: _412  and  _413
REMARK  162  A    between atoms: _418  and  _420
REMARK  163  A    between atoms: _420  and  _421
REMARK  164  A    between atoms: _420  and  _423
REMARK  165  A    between atoms: _423  and  _424
REMARK  166  A    between atoms: _424  and  _425
REMARK  167  A    between atoms: _430  and  _432
REMARK  168  A    between atoms: _432  and  _433
REMARK  169  A    between atoms: _432  and  _435
REMARK  170  A    between atoms: _435  and  _436
REMARK  171  A    between atoms: _436  and  _437
REMARK  172  A    between atoms: _437  and  _438
REMARK  173  A    between atoms: _447  and  _449
REMARK  174  A    between atoms: _449  and  _450
REMARK  175  A    between atoms: _449  and  _452
REMARK  176  A    between atoms: _452  and  _453
REMARK  177  A    between atoms: _453  and  _454
REMARK  178  A    between atoms: _457  and  _459
REMARK  179  A    between atoms: _459  and  _460
REMARK  180  A    between atoms: _459  and  _462
REMARK  181  A    between atoms: _462  and  _463
REMARK  182  A    between atoms: _463  and  _464
REMARK  183  A    between atoms: _464  and  _465
REMARK  184  A    between atoms: _465  and  _466
REMARK  185  A    between atoms: _470  and  _472
REMARK  186  A    between atoms: _472  and  _473
REMARK  187  A    between atoms: _475  and  _477
REMARK  188  A    between atoms: _477  and  _478
REMARK  189  A    between atoms: _481  and  _483
REMARK  190  A    between atoms: _483  and  _484
REMARK  191  A    between atoms: _483  and  _486
REMARK  192  A    between atoms: _486  and  _487
REMARK  193  A    between atoms: _487  and  _488
REMARK  194  A    between atoms: _493  and  _495
REMARK  195  A    between atoms: _495  and  _496
REMARK  196  A    between atoms: _499  and  _501
REMARK  197  A    between atoms: _501  and  _502
REMARK  198  A    between atoms: _501  and  _504
REMARK  199  A    between atoms: _504  and  _505
REMARK  200  A    between atoms: _508  and  _510
REMARK  201  A    between atoms: _510  and  _511
REMARK  202  A    between atoms: _510  and  _513
REMARK  203  A    between atoms: _516  and  _518
REMARK  204  A    between atoms: _518  and  _519
REMARK  205  A    between atoms: _522  and  _524
REMARK  206  A    between atoms: _524  and  _525
REMARK  207  A    between atoms: _528  and  _530
REMARK  208  A    between atoms: _530  and  _531
REMARK  209  A    between atoms: _530  and  _533
REMARK  210  A    between atoms: _533  and  _534
REMARK                            x       y       z     vdW  Elec       q    Type
REMARK                         _______ _______ _______ _____ _____    ______ ____
ROOT
ATOM      1  O   HOH     1      44.109  -4.016  -4.161  0.00  0.00    +0.000 OA
ENDROOT
TORSDOF 0
REMARK  Name = ../refined-set-2016/2c94/2c94_pocket.pdb
REMARK  210 active torsions:
REMARK  status: ('A' for Active; 'I' for Inactive)
REMARK    1  A    between atoms: _1  and  _3
REMARK    2  A    between atoms: _3  and  _4
REMARK    3  A    between atoms: _7  and  _9
REMARK    4  A    between atoms: _9  and  _10
REMARK    5  A    between atoms: _9  and  _12
REMARK    6  A    between atoms: _12  and  _13
REMARK    7  A    between atoms: _15  and  _17
REMARK    8  A    between atoms: _17  and  _18
REMARK    9  A    between atoms: _17  and  _20
REMARK   10  A    between atoms: _20  and  _21
REMARK   11  A    between atoms: _23  and  _25
REMARK   12  A    between atoms: _25  and  _26
REMARK   13  A    between atoms: _25  and  _28
REMARK   14  A    between atoms: _28  and  _29
REMARK   15  A    between atoms: _41  and  _42
REMARK   16  A    between atoms: _41  and  _44
REMARK   17  A    between atoms: _44  and  _45
REMARK   18  A    between atoms: _50  and  _52
REMARK   19  A    between atoms: _52  and  _53
REMARK   20  A    between atoms: _52  and  _55
REMARK   21  A    between atoms: _57  and  _59
REMARK   22  A    between atoms: _59  and  _60
REMARK   23  A    between atoms: _59  and  _62
REMARK   24  A    between atoms: _65  and  _67
REMARK   25  A    between atoms: _67  and  _68
REMARK   26  A    between atoms: _67  and  _70
REMARK   27  A    between atoms: _70  and  _71
REMARK   28  A    between atoms: _74  and  _76
REMARK   29  A    between atoms: _76  and  _77
REMARK   30  A    between atoms: _79  and  _81
REMARK   31  A    between atoms: _81  and  _82
REMARK   32  A    between atoms: _85  and  _87
REMARK   33  A    between atoms: _87  and  _88
REMARK   34  A    between atoms: _87  and  _90
REMARK   35  A    between atoms: _90  and  _91
REMARK   36  A    between atoms: _94  and  _96
REMARK   37  A    between atoms: _96  and  _97
REMARK   38  A    between atoms: _96  and  _99
REMARK   39  A    between atoms: _99  and  _100
REMARK   40  A    between atoms: _100  and  _101
REMARK   41  A    between atoms: _104  and  _106
REMARK   42  A    between atoms: _106  and  _107
REMARK   43  A    between atoms: _106  and  _109
REMARK   44  A    between atoms: _109  and  _110
REMARK   45  A    between atoms: _113  and  _115
REMARK   46  A    between atoms: _115  and  _116
REMARK   47  A    between atoms: _115  and  _118
REMARK   48  A    between atoms: _118  and  _119
REMARK   49  A    between atoms: _122  and  _124
REMARK   50  A    between atoms: _124  and  _125
REMARK   51  A    between atoms: _127  and  _129
REMARK   52  A    between atoms: _129  and  _130
REMARK   53  A    between atoms: _129  and  _132
REMARK   54  A    between atoms: _135  and  _137
REMARK   55  A    between atoms: _137  and  _138
REMARK   56  A    between atoms: _137  and  _140
REMARK   57  A    between atoms: _143  and  _145
REMARK   58  A    between atoms: _145  and  _146
REMARK   59  A    between atoms: _145  and  _148
REMARK   60  A    between atoms: _148  and  _149
REMARK   61  A    between atoms: _152  and  _154
REMARK   62  A    between atoms: _154  and  _155
REMARK   63  A    between atoms: _154  and  _157
REMARK   64  A    between atoms: _157  and  _158
REMARK   65  A    between atoms: _158  and  _159
REMARK   66  A    between atoms: _159  and  _160
REMARK   67  A    between atoms: _169  and  _171
REMARK   68  A    between atoms: _171  and  _172
REMARK   69  A    between atoms: _174  and  _176
REMARK   70  A    between atoms: _176  and  _177
REMARK   71  A    between atoms: _176  and  _179
REMARK   72  A    between atoms: _179  and  _180
REMARK   73  A    between atoms: _180  and  _181
REMARK   74  A    between atoms: _186  and  _188
REMARK   75  A    between atoms: _188  and  _189
REMARK   76  A    between atoms: _188  and  _191
REMARK   77  A    between atoms: _191  and  _192
REMARK   78  A    between atoms: _196  and  _197
REMARK   79  A    between atoms: _202  and  _204
REMARK   80  A    between atoms: _204  and  _205
REMARK   81  A    between atoms: _204  and  _207
REMARK   82  A    between atoms: _207  and  _208
REMARK   83  A    between atoms: _213  and  _215
REMARK   84  A    between atoms: _215  and  _216
REMARK   85  A    between atoms: _215  and  _218
REMARK   86  A    between atoms: _218  and  _219
REMARK   87  A    between atoms: _225  and  _227
REMARK   88  A    between atoms: _227  and  _228
REMARK   89  A    between atoms: _227  and  _230
REMARK   90  A    between atoms: _230  and  _231
REMARK   91  A    between atoms: _234  and  _236
REMARK   92  A    between atoms: _236  and  _237
REMARK   93  A    between atoms: _236  and  _239
REMARK   94  A    between atoms: _239  and  _240
REMARK   95  A    between atoms: _245  and  _246
REMARK   96  A    between atoms: _248  and  _250
REMARK   97  A    between atoms: _250  and  _251
REMARK   98  A    between atoms: _250  and  _253
REMARK   99  A    between atoms: _256  and  _258
REMARK  100  A    between atoms: _258  and  _259
REMARK  101  A    between atoms: _258  and  _261
REMARK  102  A    between atoms: _263  and  _265
REMARK  103  A    between atoms: _265  and  _266
REMARK  104  A    between atoms: _269  and  _271
REMARK  105  A    between atoms: _271  and  _272
REMARK  106  A    between atoms: _271  and  _274
REMARK  107  A    between atoms: _277  and  _279
REMARK  108  A    between atoms: _279  and  _280
REMARK  109  A    between atoms: _279  and  _282
REMARK  110  A    between atoms: _285  and  _287
REMARK  111  A    between atoms: _287  and  _288
REMARK  112  A    between atoms: _287  and  _290
REMARK  113  A    between atoms: _290  and  _291
REMARK  114  A    between atoms: _294  and  _296
REMARK  115  A    between atoms: _296  and  _297
REMARK  116  A    between atoms: _296  and  _299
REMARK  117  A    between atoms: _299  and  _300
REMARK  118  A    between atoms: _303  and  _305
REMARK  119  A    between atoms: _305  and  _306
REMARK  120  A    between atoms: _305  and  _308
REMARK  121  A    between atoms: _311  and  _313
REMARK  122  A    between atoms: _313  and  _314
REMARK  123  A    between atoms: _313  and  _316
REMARK  124  A    between atoms: _319  and  _321
REMARK  125  A    between atoms: _321  and  _322
REMARK  126  A    between atoms: _325  and  _327
REMARK  127  A    between atoms: _327  and  _328
REMARK  128  A    between atoms: _327  and  _330
REMARK  129  A    between atoms: _330  and  _331
REMARK  130  A    between atoms: _335  and  _336
REMARK  131  A    between atoms: _341  and  _343
REMARK  132  A    between atoms: _343  and  _344
REMARK  133  A    between atoms: _343  and  _346
REMARK  134  A    between atoms: _346  and  _347
REMARK  135  A    between atoms: _350  and  _352
REMARK  136  A    between atoms: _352  and  _353
REMARK  137  A    between atoms: _356  and  _358
REMARK  138  A    between atoms: _358  and  _359
REMARK  139  A    between atoms: _358  and  _361
REMARK  140  A    between atoms: _361  and  _362
REMARK  141  A    between atoms: _367  and  _369
REMARK  142  A    between atoms: _369  and  _370
REMARK  143  A    between atoms: _372  and  _374
REMARK  144  A    between atoms: _374  and  _375
REMARK  145  A    between atoms: _374  and  _377
REMARK  146  A    between atoms: _380  and  _382
REMARK  147  A    between atoms: _382  and  _383
REMARK  148  A    between atoms: _382  and  _385
REMARK  149  A    between atoms: _385  and  _386
REMARK  150  A    between atoms: _389  and  _391
REMARK  151  A    between atoms: _391  and  _392
REMARK  152  A    between atoms: _391  and  _394
REMARK  153  A    between atoms: _394  and  _395
REMARK  154  A    between atoms: _398  and  _400
REMARK  155  A    between atoms: _400  and  _401
REMARK  156  A    between atoms: _400  and  _403
REMARK  157  A    between atoms: _403  and  _404
REMARK  158  A    between atoms: _407  and  _409
REMARK  159  A    between atoms: _409  and  _410
REMARK  160  A    between atoms: _409  and  _412
REMARK  161  A    between atoms: _412  and  _413
REMARK  162  A    between atoms: _418  and  _420
REMARK  163  A    between atoms: _420  and  _421
REMARK  164  A    between atoms: _420  and  _423
REMARK  165  A    between atoms: _423  and  _424
REMARK  166  A    between atoms: _424  and  _425
REMARK  167  A    between atoms: _430  and  _432
REMARK  168  A    between atoms: _432  and  _433
REMARK  169  A    between atoms: _432  and  _435
REMARK  170  A    between atoms: _435  and  _436
REMARK  171  A    between atoms: _436  and  _437
REMARK  172  A    between atoms: _437  and  _438
REMARK  173  A    between atoms: _447  and  _449
REMARK  174  A    between atoms: _449  and  _450
REMARK  175  A    between atoms: _449  and  _452
REMARK  176  A    between atoms: _452  and  _453
REMARK  177  A    between atoms: _453  and  _454
REMARK  178  A    between atoms: _457  and  _459
REMARK  179  A    between atoms: _459  and  _460
REMARK  180  A    between atoms: _459  and  _462
REMARK  181  A    between atoms: _462  and  _463
REMARK  182  A    between atoms: _463  and  _464
REMARK  183  A    between atoms: _464  and  _465
REMARK  184  A    between atoms: _465  and  _466
REMARK  185  A    between atoms: _470  and  _472
REMARK  186  A    between atoms: _472  and  _473
REMARK  187  A    between atoms: _475  and  _477
REMARK  188  A    between atoms: _477  and  _478
REMARK  189  A    between atoms: _481  and  _483
REMARK  190  A    between atoms: _483  and  _484
REMARK  191  A    between atoms: _483  and  _486
REMARK  192  A    between atoms: _486  and  _487
REMARK  193  A    between atoms: _487  and  _488
REMARK  194  A    between atoms: _493  and  _495
REMARK  195  A    between atoms: _495  and  _496
REMARK  196  A    between atoms: _499  and  _501
REMARK  197  A    between atoms: _501  and  _502
REMARK  198  A    between atoms: _501  and  _504
REMARK  199  A    between atoms: _504  and  _505
REMARK  200  A    between atoms: _508  and  _510
REMARK  201  A    between atoms: _510  and  _511
REMARK  202  A    between atoms: _510  and  _513
REMARK  203  A    between atoms: _516  and  _518
REMARK  204  A    between atoms: _518  and  _519
REMARK  205  A    between atoms: _522  and  _524
REMARK  206  A    between atoms: _524  and  _525
REMARK  207  A    between atoms: _528  and  _530
REMARK  208  A    between atoms: _530  and  _531
REMARK  209  A    between atoms: _530  and  _533
REMARK  210  A    between atoms: _533  and  _534
REMARK                            x       y       z     vdW  Elec       q    Type
REMARK                         _______ _______ _______ _____ _____    ______ ____
ROOT
ATOM      1  O   HOH     1      49.763   1.619   1.975  0.00  0.00    +0.000 OA
ENDROOT
TORSDOF 0
REMARK  Name = ../refined-set-2016/2c94/2c94_pocket.pdb
REMARK  210 active torsions:
REMARK  status: ('A' for Active; 'I' for Inactive)
REMARK    1  A    between atoms: _1  and  _3
REMARK    2  A    between atoms: _3  and  _4
REMARK    3  A    between atoms: _7  and  _9
REMARK    4  A    between atoms: _9  and  _10
REMARK    5  A    between atoms: _9  and  _12
REMARK    6  A    between atoms: _12  and  _13
REMARK    7  A    between atoms: _15  and  _17
REMARK    8  A    between atoms: _17  and  _18
REMARK    9  A    between atoms: _17  and  _20
REMARK   10  A    between atoms: _20  and  _21
REMARK   11  A    between atoms: _23  and  _25
REMARK   12  A    between atoms: _25  and  _26
REMARK   13  A    between atoms: _25  and  _28
REMARK   14  A    between atoms: _28  and  _29
REMARK   15  A    between atoms: _41  and  _42
REMARK   16  A    between atoms: _41  and  _44
REMARK   17  A    between atoms: _44  and  _45
REMARK   18  A    between atoms: _50  and  _52
REMARK   19  A    between atoms: _52  and  _53
REMARK   20  A    between atoms: _52  and  _55
REMARK   21  A    between atoms: _57  and  _59
REMARK   22  A    between atoms: _59  and  _60
REMARK   23  A    between atoms: _59  and  _62
REMARK   24  A    between atoms: _65  and  _67
REMARK   25  A    between atoms: _67  and  _68
REMARK   26  A    between atoms: _67  and  _70
REMARK   27  A    between atoms: _70  and  _71
REMARK   28  A    between atoms: _74  and  _76
REMARK   29  A    between atoms: _76  and  _77
REMARK   30  A    between atoms: _79  and  _81
REMARK   31  A    between atoms: _81  and  _82
REMARK   32  A    between atoms: _85  and  _87
REMARK   33  A    between atoms: _87  and  _88
REMARK   34  A    between atoms: _87  and  _90
REMARK   35  A    between atoms: _90  and  _91
REMARK   36  A    between atoms: _94  and  _96
REMARK   37  A    between atoms: _96  and  _97
REMARK   38  A    between atoms: _96  and  _99
REMARK   39  A    between atoms: _99  and  _100
REMARK   40  A    between atoms: _100  and  _101
REMARK   41  A    between atoms: _104  and  _106
REMARK   42  A    between atoms: _106  and  _107
REMARK   43  A    between atoms: _106  and  _109
REMARK   44  A    between atoms: _109  and  _110
REMARK   45  A    between atoms: _113  and  _115
REMARK   46  A    between atoms: _115  and  _116
REMARK   47  A    between atoms: _115  and  _118
REMARK   48  A    between atoms: _118  and  _119
REMARK   49  A    between atoms: _122  and  _124
REMARK   50  A    between atoms: _124  and  _125
REMARK   51  A    between atoms: _127  and  _129
REMARK   52  A    between atoms: _129  and  _130
REMARK   53  A    between atoms: _129  and  _132
REMARK   54  A    between atoms: _135  and  _137
REMARK   55  A    between atoms: _137  and  _138
REMARK   56  A    between atoms: _137  and  _140
REMARK   57  A    between atoms: _143  and  _145
REMARK   58  A    between atoms: _145  and  _146
REMARK   59  A    between atoms: _145  and  _148
REMARK   60  A    between atoms: _148  and  _149
REMARK   61  A    between atoms: _152  and  _154
REMARK   62  A    between atoms: _154  and  _155
REMARK   63  A    between atoms: _154  and  _157
REMARK   64  A    between atoms: _157  and  _158
REMARK   65  A    between atoms: _158  and  _159
REMARK   66  A    between atoms: _159  and  _160
REMARK   67  A    between atoms: _169  and  _171
REMARK   68  A    between atoms: _171  and  _172
REMARK   69  A    between atoms: _174  and  _176
REMARK   70  A    between atoms: _176  and  _177
REMARK   71  A    between atoms: _176  and  _179
REMARK   72  A    between atoms: _179  and  _180
REMARK   73  A    between atoms: _180  and  _181
REMARK   74  A    between atoms: _186  and  _188
REMARK   75  A    between atoms: _188  and  _189
REMARK   76  A    between atoms: _188  and  _191
REMARK   77  A    between atoms: _191  and  _192
REMARK   78  A    between atoms: _196  and  _197
REMARK   79  A    between atoms: _202  and  _204
REMARK   80  A    between atoms: _204  and  _205
REMARK   81  A    between atoms: _204  and  _207
REMARK   82  A    between atoms: _207  and  _208
REMARK   83  A    between atoms: _213  and  _215
REMARK   84  A    between atoms: _215  and  _216
REMARK   85  A    between atoms: _215  and  _218
REMARK   86  A    between atoms: _218  and  _219
REMARK   87  A    between atoms: _225  and  _227
REMARK   88  A    between atoms: _227  and  _228
REMARK   89  A    between atoms: _227  and  _230
REMARK   90  A    between atoms: _230  and  _231
REMARK   91  A    between atoms: _234  and  _236
REMARK   92  A    between atoms: _236  and  _237
REMARK   93  A    between atoms: _236  and  _239
REMARK   94  A    between atoms: _239  and  _240
REMARK   95  A    between atoms: _245  and  _246
REMARK   96  A    between atoms: _248  and  _250
REMARK   97  A    between atoms: _250  and  _251
REMARK   98  A    between atoms: _250  and  _253
REMARK   99  A    between atoms: _256  and  _258
REMARK  100  A    between atoms: _258  and  _259
REMARK  101  A    between atoms: _258  and  _261
REMARK  102  A    between atoms: _263  and  _265
REMARK  103  A    between atoms: _265  and  _266
REMARK  104  A    between atoms: _269  and  _271
REMARK  105  A    between atoms: _271  and  _272
REMARK  106  A    between atoms: _271  and  _274
REMARK  107  A    between atoms: _277  and  _279
REMARK  108  A    between atoms: _279  and  _280
REMARK  109  A    between atoms: _279  and  _282
REMARK  110  A    between atoms: _285  and  _287
REMARK  111  A    between atoms: _287  and  _288
REMARK  112  A    between atoms: _287  and  _290
REMARK  113  A    between atoms: _290  and  _291
REMARK  114  A    between atoms: _294  and  _296
REMARK  115  A    between atoms: _296  and  _297
REMARK  116  A    between atoms: _296  and  _299
REMARK  117  A    between atoms: _299  and  _300
REMARK  118  A    between atoms: _303  and  _305
REMARK  119  A    between atoms: _305  and  _306
REMARK  120  A    between atoms: _305  and  _308
REMARK  121  A    between atoms: _311  and  _313
REMARK  122  A    between atoms: _313  and  _314
REMARK  123  A    between atoms: _313  and  _316
REMARK  124  A    between atoms: _319  and  _321
REMARK  125  A    between atoms: _321  and  _322
REMARK  126  A    between atoms: _325  and  _327
REMARK  127  A    between atoms: _327  and  _328
REMARK  128  A    between atoms: _327  and  _330
REMARK  129  A    between atoms: _330  and  _331
REMARK  130  A    between atoms: _335  and  _336
REMARK  131  A    between atoms: _341  and  _343
REMARK  132  A    between atoms: _343  and  _344
REMARK  133  A    between atoms: _343  and  _346
REMARK  134  A    between atoms: _346  and  _347
REMARK  135  A    between atoms: _350  and  _352
REMARK  136  A    between atoms: _352  and  _353
REMARK  137  A    between atoms: _356  and  _358
REMARK  138  A    between atoms: _358  and  _359
REMARK  139  A    between atoms: _358  and  _361
REMARK  140  A    between atoms: _361  and  _362
REMARK  141  A    between atoms: _367  and  _369
REMARK  142  A    between atoms: _369  and  _370
REMARK  143  A    between atoms: _372  and  _374
REMARK  144  A    between atoms: _374  and  _375
REMARK  145  A    between atoms: _374  and  _377
REMARK  146  A    between atoms: _380  and  _382
REMARK  147  A    between atoms: _382  and  _383
REMARK  148  A    between atoms: _382  and  _385
REMARK  149  A    between atoms: _385  and  _386
REMARK  150  A    between atoms: _389  and  _391
REMARK  151  A    between atoms: _391  and  _392
REMARK  152  A    between atoms: _391  and  _394
REMARK  153  A    between atoms: _394  and  _395
REMARK  154  A    between atoms: _398  and  _400
REMARK  155  A    between atoms: _400  and  _401
REMARK  156  A    between atoms: _400  and  _403
REMARK  157  A    between atoms: _403  and  _404
REMARK  158  A    between atoms: _407  and  _409
REMARK  159  A    between atoms: _409  and  _410
REMARK  160  A    between atoms: _409  and  _412
REMARK  161  A    between atoms: _412  and  _413
REMARK  162  A    between atoms: _418  and  _420
REMARK  163  A    between atoms: _420  and  _421
REMARK  164  A    between atoms: _420  and  _423
REMARK  165  A    between atoms: _423  and  _424
REMARK  166  A    between atoms: _424  and  _425
REMARK  167  A    between atoms: _430  and  _432
REMARK  168  A    between atoms: _432  and  _433
REMARK  169  A    between atoms: _432  and  _435
REMARK  170  A    between atoms: _435  and  _436
REMARK  171  A    between atoms: _436  and  _437
REMARK  172  A    between atoms: _437  and  _438
REMARK  173  A    between atoms: _447  and  _449
REMARK  174  A    between atoms: _449  and  _450
REMARK  175  A    between atoms: _449  and  _452
REMARK  176  A    between atoms: _452  and  _453
REMARK  177  A    between atoms: _453  and  _454
REMARK  178  A    between atoms: _457  and  _459
REMARK  179  A    between atoms: _459  and  _460
REMARK  180  A    between atoms: _459  and  _462
REMARK  181  A    between atoms: _462  and  _463
REMARK  182  A    between atoms: _463  and  _464
REMARK  183  A    between atoms: _464  and  _465
REMARK  184  A    between atoms: _465  and  _466
REMARK  185  A    between atoms: _470  and  _472
REMARK  186  A    between atoms: _472  and  _473
REMARK  187  A    between atoms: _475  and  _477
REMARK  188  A    between atoms: _477  and  _478
REMARK  189  A    between atoms: _481  and  _483
REMARK  190  A    between atoms: _483  and  _484
REMARK  191  A    between atoms: _483  and  _486
REMARK  192  A    between atoms: _486  and  _487
REMARK  193  A    between atoms: _487  and  _488
REMARK  194  A    between atoms: _493  and  _495
REMARK  195  A    between atoms: _495  and  _496
REMARK  196  A    between atoms: _499  and  _501
REMARK  197  A    between atoms: _501  and  _502
REMARK  198  A    between atoms: _501  and  _504
REMARK  199  A    between atoms: _504  and  _505
REMARK  200  A    between atoms: _508  and  _510
REMARK  201  A    between atoms: _510  and  _511
REMARK  202  A    between atoms: _510  and  _513
REMARK  203  A    between atoms: _516  and  _518
REMARK  204  A    between atoms: _518  and  _519
REMARK  205  A    between atoms: _522  and  _524
REMARK  206  A    between atoms: _524  and  _525
REMARK  207  A    between atoms: _528  and  _530
REMARK  208  A    between atoms: _530  and  _531
REMARK  209  A    between atoms: _530  and  _533
REMARK  210  A    between atoms: _533  and  _534
REMARK                            x       y       z     vdW  Elec       q    Type
REMARK                         _______ _______ _______ _____ _____    ______ ____
ROOT
ATOM      1  O   HOH     1      46.578   3.728  12.880  0.00  0.00    +0.000 OA
ENDROOT
TORSDOF 0
REMARK  Name = ../refined-set-2016/2c94/2c94_pocket.pdb
REMARK  210 active torsions:
REMARK  status: ('A' for Active; 'I' for Inactive)
REMARK    1  A    between atoms: _1  and  _3
REMARK    2  A    between atoms: _3  and  _4
REMARK    3  A    between atoms: _7  and  _9
REMARK    4  A    between atoms: _9  and  _10
REMARK    5  A    between atoms: _9  and  _12
REMARK    6  A    between atoms: _12  and  _13
REMARK    7  A    between atoms: _15  and  _17
REMARK    8  A    between atoms: _17  and  _18
REMARK    9  A    between atoms: _17  and  _20
REMARK   10  A    between atoms: _20  and  _21
REMARK   11  A    between atoms: _23  and  _25
REMARK   12  A    between atoms: _25  and  _26
REMARK   13  A    between atoms: _25  and  _28
REMARK   14  A    between atoms: _28  and  _29
REMARK   15  A    between atoms: _41  and  _42
REMARK   16  A    between atoms: _41  and  _44
REMARK   17  A    between atoms: _44  and  _45
REMARK   18  A    between atoms: _50  and  _52
REMARK   19  A    between atoms: _52  and  _53
REMARK   20  A    between atoms: _52  and  _55
REMARK   21  A    between atoms: _57  and  _59
REMARK   22  A    between atoms: _59  and  _60
REMARK   23  A    between atoms: _59  and  _62
REMARK   24  A    between atoms: _65  and  _67
REMARK   25  A    between atoms: _67  and  _68
REMARK   26  A    between atoms: _67  and  _70
REMARK   27  A    between atoms: _70  and  _71
REMARK   28  A    between atoms: _74  and  _76
REMARK   29  A    between atoms: _76  and  _77
REMARK   30  A    between atoms: _79  and  _81
REMARK   31  A    between atoms: _81  and  _82
REMARK   32  A    between atoms: _85  and  _87
REMARK   33  A    between atoms: _87  and  _88
REMARK   34  A    between atoms: _87  and  _90
REMARK   35  A    between atoms: _90  and  _91
REMARK   36  A    between atoms: _94  and  _96
REMARK   37  A    between atoms: _96  and  _97
REMARK   38  A    between atoms: _96  and  _99
REMARK   39  A    between atoms: _99  and  _100
REMARK   40  A    between atoms: _100  and  _101
REMARK   41  A    between atoms: _104  and  _106
REMARK   42  A    between atoms: _106  and  _107
REMARK   43  A    between atoms: _106  and  _109
REMARK   44  A    between atoms: _109  and  _110
REMARK   45  A    between atoms: _113  and  _115
REMARK   46  A    between atoms: _115  and  _116
REMARK   47  A    between atoms: _115  and  _118
REMARK   48  A    between atoms: _118  and  _119
REMARK   49  A    between atoms: _122  and  _124
REMARK   50  A    between atoms: _124  and  _125
REMARK   51  A    between atoms: _127  and  _129
REMARK   52  A    between atoms: _129  and  _130
REMARK   53  A    between atoms: _129  and  _132
REMARK   54  A    between atoms: _135  and  _137
REMARK   55  A    between atoms: _137  and  _138
REMARK   56  A    between atoms: _137  and  _140
REMARK   57  A    between atoms: _143  and  _145
REMARK   58  A    between atoms: _145  and  _146
REMARK   59  A    between atoms: _145  and  _148
REMARK   60  A    between atoms: _148  and  _149
REMARK   61  A    between atoms: _152  and  _154
REMARK   62  A    between atoms: _154  and  _155
REMARK   63  A    between atoms: _154  and  _157
REMARK   64  A    between atoms: _157  and  _158
REMARK   65  A    between atoms: _158  and  _159
REMARK   66  A    between atoms: _159  and  _160
REMARK   67  A    between atoms: _169  and  _171
REMARK   68  A    between atoms: _171  and  _172
REMARK   69  A    between atoms: _174  and  _176
REMARK   70  A    between atoms: _176  and  _177
REMARK   71  A    between atoms: _176  and  _179
REMARK   72  A    between atoms: _179  and  _180
REMARK   73  A    between atoms: _180  and  _181
REMARK   74  A    between atoms: _186  and  _188
REMARK   75  A    between atoms: _188  and  _189
REMARK   76  A    between atoms: _188  and  _191
REMARK   77  A    between atoms: _191  and  _192
REMARK   78  A    between atoms: _196  and  _197
REMARK   79  A    between atoms: _202  and  _204
REMARK   80  A    between atoms: _204  and  _205
REMARK   81  A    between atoms: _204  and  _207
REMARK   82  A    between atoms: _207  and  _208
REMARK   83  A    between atoms: _213  and  _215
REMARK   84  A    between atoms: _215  and  _216
REMARK   85  A    between atoms: _215  and  _218
REMARK   86  A    between atoms: _218  and  _219
REMARK   87  A    between atoms: _225  and  _227
REMARK   88  A    between atoms: _227  and  _228
REMARK   89  A    between atoms: _227  and  _230
REMARK   90  A    between atoms: _230  and  _231
REMARK   91  A    between atoms: _234  and  _236
REMARK   92  A    between atoms: _236  and  _237
REMARK   93  A    between atoms: _236  and  _239
REMARK   94  A    between atoms: _239  and  _240
REMARK   95  A    between atoms: _245  and  _246
REMARK   96  A    between atoms: _248  and  _250
REMARK   97  A    between atoms: _250  and  _251
REMARK   98  A    between atoms: _250  and  _253
REMARK   99  A    between atoms: _256  and  _258
REMARK  100  A    between atoms: _258  and  _259
REMARK  101  A    between atoms: _258  and  _261
REMARK  102  A    between atoms: _263  and  _265
REMARK  103  A    between atoms: _265  and  _266
REMARK  104  A    between atoms: _269  and  _271
REMARK  105  A    between atoms: _271  and  _272
REMARK  106  A    between atoms: _271  and  _274
REMARK  107  A    between atoms: _277  and  _279
REMARK  108  A    between atoms: _279  and  _280
REMARK  109  A    between atoms: _279  and  _282
REMARK  110  A    between atoms: _285  and  _287
REMARK  111  A    between atoms: _287  and  _288
REMARK  112  A    between atoms: _287  and  _290
REMARK  113  A    between atoms: _290  and  _291
REMARK  114  A    between atoms: _294  and  _296
REMARK  115  A    between atoms: _296  and  _297
REMARK  116  A    between atoms: _296  and  _299
REMARK  117  A    between atoms: _299  and  _300
REMARK  118  A    between atoms: _303  and  _305
REMARK  119  A    between atoms: _305  and  _306
REMARK  120  A    between atoms: _305  and  _308
REMARK  121  A    between atoms: _311  and  _313
REMARK  122  A    between atoms: _313  and  _314
REMARK  123  A    between atoms: _313  and  _316
REMARK  124  A    between atoms: _319  and  _321
REMARK  125  A    between atoms: _321  and  _322
REMARK  126  A    between atoms: _325  and  _327
REMARK  127  A    between atoms: _327  and  _328
REMARK  128  A    between atoms: _327  and  _330
REMARK  129  A    between atoms: _330  and  _331
REMARK  130  A    between atoms: _335  and  _336
REMARK  131  A    between atoms: _341  and  _343
REMARK  132  A    between atoms: _343  and  _344
REMARK  133  A    between atoms: _343  and  _346
REMARK  134  A    between atoms: _346  and  _347
REMARK  135  A    between atoms: _350  and  _352
REMARK  136  A    between atoms: _352  and  _353
REMARK  137  A    between atoms: _356  and  _358
REMARK  138  A    between atoms: _358  and  _359
REMARK  139  A    between atoms: _358  and  _361
REMARK  140  A    between atoms: _361  and  _362
REMARK  141  A    between atoms: _367  and  _369
REMARK  142  A    between atoms: _369  and  _370
REMARK  143  A    between atoms: _372  and  _374
REMARK  144  A    between atoms: _374  and  _375
REMARK  145  A    between atoms: _374  and  _377
REMARK  146  A    between atoms: _380  and  _382
REMARK  147  A    between atoms: _382  and  _383
REMARK  148  A    between atoms: _382  and  _385
REMARK  149  A    between atoms: _385  and  _386
REMARK  150  A    between atoms: _389  and  _391
REMARK  151  A    between atoms: _391  and  _392
REMARK  152  A    between atoms: _391  and  _394
REMARK  153  A    between atoms: _394  and  _395
REMARK  154  A    between atoms: _398  and  _400
REMARK  155  A    between atoms: _400  and  _401
REMARK  156  A    between atoms: _400  and  _403
REMARK  157  A    between atoms: _403  and  _404
REMARK  158  A    between atoms: _407  and  _409
REMARK  159  A    between atoms: _409  and  _410
REMARK  160  A    between atoms: _409  and  _412
REMARK  161  A    between atoms: _412  and  _413
REMARK  162  A    between atoms: _418  and  _420
REMARK  163  A    between atoms: _420  and  _421
REMARK  164  A    between atoms: _420  and  _423
REMARK  165  A    between atoms: _423  and  _424
REMARK  166  A    between atoms: _424  and  _425
REMARK  167  A    between atoms: _430  and  _432
REMARK  168  A    between atoms: _432  and  _433
REMARK  169  A    between atoms: _432  and  _435
REMARK  170  A    between atoms: _435  and  _436
REMARK  171  A    between atoms: _436  and  _437
REMARK  172  A    between atoms: _437  and  _438
REMARK  173  A    between atoms: _447  and  _449
REMARK  174  A    between atoms: _449  and  _450
REMARK  175  A    between atoms: _449  and  _452
REMARK  176  A    between atoms: _452  and  _453
REMARK  177  A    between atoms: _453  and  _454
REMARK  178  A    between atoms: _457  and  _459
REMARK  179  A    between atoms: _459  and  _460
REMARK  180  A    between atoms: _459  and  _462
REMARK  181  A    between atoms: _462  and  _463
REMARK  182  A    between atoms: _463  and  _464
REMARK  183  A    between atoms: _464  and  _465
REMARK  184  A    between atoms: _465  and  _466
REMARK  185  A    between atoms: _470  and  _472
REMARK  186  A    between atoms: _472  and  _473
REMARK  187  A    between atoms: _475  and  _477
REMARK  188  A    between atoms: _477  and  _478
REMARK  189  A    between atoms: _481  and  _483
REMARK  190  A    between atoms: _483  and  _484
REMARK  191  A    between atoms: _483  and  _486
REMARK  192  A    between atoms: _486  and  _487
REMARK  193  A    between atoms: _487  and  _488
REMARK  194  A    between atoms: _493  and  _495
REMARK  195  A    between atoms: _495  and  _496
REMARK  196  A    between atoms: _499  and  _501
REMARK  197  A    between atoms: _501  and  _502
REMARK  198  A    between atoms: _501  and  _504
REMARK  199  A    between atoms: _504  and  _505
REMARK  200  A    between atoms: _508  and  _510
REMARK  201  A    between atoms: _510  and  _511
REMARK  202  A    between atoms: _510  and  _513
REMARK  203  A    between atoms: _516  and  _518
REMARK  204  A    between atoms: _518  and  _519
REMARK  205  A    between atoms: _522  and  _524
REMARK  206  A    between atoms: _524  and  _525
REMARK  207  A    between atoms: _528  and  _530
REMARK  208  A    between atoms: _530  and  _531
REMARK  209  A    between atoms: _530  and  _533
REMARK  210  A    between atoms: _533  and  _534
REMARK                            x       y       z     vdW  Elec       q    Type
REMARK                         _______ _______ _______ _____ _____    ______ ____
ROOT
ATOM      1  O   HOH     1      43.286  -0.751  -0.646  0.00  0.00    +0.000 OA
ENDROOT
TORSDOF 0
REMARK  Name = ../refined-set-2016/2c94/2c94_pocket.pdb
REMARK  210 active torsions:
REMARK  status: ('A' for Active; 'I' for Inactive)
REMARK    1  A    between atoms: _1  and  _3
REMARK    2  A    between atoms: _3  and  _4
REMARK    3  A    between atoms: _7  and  _9
REMARK    4  A    between atoms: _9  and  _10
REMARK    5  A    between atoms: _9  and  _12
REMARK    6  A    between atoms: _12  and  _13
REMARK    7  A    between atoms: _15  and  _17
REMARK    8  A    between atoms: _17  and  _18
REMARK    9  A    between atoms: _17  and  _20
REMARK   10  A    between atoms: _20  and  _21
REMARK   11  A    between atoms: _23  and  _25
REMARK   12  A    between atoms: _25  and  _26
REMARK   13  A    between atoms: _25  and  _28
REMARK   14  A    between atoms: _28  and  _29
REMARK   15  A    between atoms: _41  and  _42
REMARK   16  A    between atoms: _41  and  _44
REMARK   17  A    between atoms: _44  and  _45
REMARK   18  A    between atoms: _50  and  _52
REMARK   19  A    between atoms: _52  and  _53
REMARK   20  A    between atoms: _52  and  _55
REMARK   21  A    between atoms: _57  and  _59
REMARK   22  A    between atoms: _59  and  _60
REMARK   23  A    between atoms: _59  and  _62
REMARK   24  A    between atoms: _65  and  _67
REMARK   25  A    between atoms: _67  and  _68
REMARK   26  A    between atoms: _67  and  _70
REMARK   27  A    between atoms: _70  and  _71
REMARK   28  A    between atoms: _74  and  _76
REMARK   29  A    between atoms: _76  and  _77
REMARK   30  A    between atoms: _79  and  _81
REMARK   31  A    between atoms: _81  and  _82
REMARK   32  A    between atoms: _85  and  _87
REMARK   33  A    between atoms: _87  and  _88
REMARK   34  A    between atoms: _87  and  _90
REMARK   35  A    between atoms: _90  and  _91
REMARK   36  A    between atoms: _94  and  _96
REMARK   37  A    between atoms: _96  and  _97
REMARK   38  A    between atoms: _96  and  _99
REMARK   39  A    between atoms: _99  and  _100
REMARK   40  A    between atoms: _100  and  _101
REMARK   41  A    between atoms: _104  and  _106
REMARK   42  A    between atoms: _106  and  _107
REMARK   43  A    between atoms: _106  and  _109
REMARK   44  A    between atoms: _109  and  _110
REMARK   45  A    between atoms: _113  and  _115
REMARK   46  A    between atoms: _115  and  _116
REMARK   47  A    between atoms: _115  and  _118
REMARK   48  A    between atoms: _118  and  _119
REMARK   49  A    between atoms: _122  and  _124
REMARK   50  A    between atoms: _124  and  _125
REMARK   51  A    between atoms: _127  and  _129
REMARK   52  A    between atoms: _129  and  _130
REMARK   53  A    between atoms: _129  and  _132
REMARK   54  A    between atoms: _135  and  _137
REMARK   55  A    between atoms: _137  and  _138
REMARK   56  A    between atoms: _137  and  _140
REMARK   57  A    between atoms: _143  and  _145
REMARK   58  A    between atoms: _145  and  _146
REMARK   59  A    between atoms: _145  and  _148
REMARK   60  A    between atoms: _148  and  _149
REMARK   61  A    between atoms: _152  and  _154
REMARK   62  A    between atoms: _154  and  _155
REMARK   63  A    between atoms: _154  and  _157
REMARK   64  A    between atoms: _157  and  _158
REMARK   65  A    between atoms: _158  and  _159
REMARK   66  A    between atoms: _159  and  _160
REMARK   67  A    between atoms: _169  and  _171
REMARK   68  A    between atoms: _171  and  _172
REMARK   69  A    between atoms: _174  and  _176
REMARK   70  A    between atoms: _176  and  _177
REMARK   71  A    between atoms: _176  and  _179
REMARK   72  A    between atoms: _179  and  _180
REMARK   73  A    between atoms: _180  and  _181
REMARK   74  A    between atoms: _186  and  _188
REMARK   75  A    between atoms: _188  and  _189
REMARK   76  A    between atoms: _188  and  _191
REMARK   77  A    between atoms: _191  and  _192
REMARK   78  A    between atoms: _196  and  _197
REMARK   79  A    between atoms: _202  and  _204
REMARK   80  A    between atoms: _204  and  _205
REMARK   81  A    between atoms: _204  and  _207
REMARK   82  A    between atoms: _207  and  _208
REMARK   83  A    between atoms: _213  and  _215
REMARK   84  A    between atoms: _215  and  _216
REMARK   85  A    between atoms: _215  and  _218
REMARK   86  A    between atoms: _218  and  _219
REMARK   87  A    between atoms: _225  and  _227
REMARK   88  A    between atoms: _227  and  _228
REMARK   89  A    between atoms: _227  and  _230
REMARK   90  A    between atoms: _230  and  _231
REMARK   91  A    between atoms: _234  and  _236
REMARK   92  A    between atoms: _236  and  _237
REMARK   93  A    between atoms: _236  and  _239
REMARK   94  A    between atoms: _239  and  _240
REMARK   95  A    between atoms: _245  and  _246
REMARK   96  A    between atoms: _248  and  _250
REMARK   97  A    between atoms: _250  and  _251
REMARK   98  A    between atoms: _250  and  _253
REMARK   99  A    between atoms: _256  and  _258
REMARK  100  A    between atoms: _258  and  _259
REMARK  101  A    between atoms: _258  and  _261
REMARK  102  A    between atoms: _263  and  _265
REMARK  103  A    between atoms: _265  and  _266
REMARK  104  A    between atoms: _269  and  _271
REMARK  105  A    between atoms: _271  and  _272
REMARK  106  A    between atoms: _271  and  _274
REMARK  107  A    between atoms: _277  and  _279
REMARK  108  A    between atoms: _279  and  _280
REMARK  109  A    between atoms: _279  and  _282
REMARK  110  A    between atoms: _285  and  _287
REMARK  111  A    between atoms: _287  and  _288
REMARK  112  A    between atoms: _287  and  _290
REMARK  113  A    between atoms: _290  and  _291
REMARK  114  A    between atoms: _294  and  _296
REMARK  115  A    between atoms: _296  and  _297
REMARK  116  A    between atoms: _296  and  _299
REMARK  117  A    between atoms: _299  and  _300
REMARK  118  A    between atoms: _303  and  _305
REMARK  119  A    between atoms: _305  and  _306
REMARK  120  A    between atoms: _305  and  _308
REMARK  121  A    between atoms: _311  and  _313
REMARK  122  A    between atoms: _313  and  _314
REMARK  123  A    between atoms: _313  and  _316
REMARK  124  A    between atoms: _319  and  _321
REMARK  125  A    between atoms: _321  and  _322
REMARK  126  A    between atoms: _325  and  _327
REMARK  127  A    between atoms: _327  and  _328
REMARK  128  A    between atoms: _327  and  _330
REMARK  129  A    between atoms: _330  and  _331
REMARK  130  A    between atoms: _335  and  _336
REMARK  131  A    between atoms: _341  and  _343
REMARK  132  A    between atoms: _343  and  _344
REMARK  133  A    between atoms: _343  and  _346
REMARK  134  A    between atoms: _346  and  _347
REMARK  135  A    between atoms: _350  and  _352
REMARK  136  A    between atoms: _352  and  _353
REMARK  137  A    between atoms: _356  and  _358
REMARK  138  A    between atoms: _358  and  _359
REMARK  139  A    between atoms: _358  and  _361
REMARK  140  A    between atoms: _361  and  _362
REMARK  141  A    between atoms: _367  and  _369
REMARK  142  A    between atoms: _369  and  _370
REMARK  143  A    between atoms: _372  and  _374
REMARK  144  A    between atoms: _374  and  _375
REMARK  145  A    between atoms: _374  and  _377
REMARK  146  A    between atoms: _380  and  _382
REMARK  147  A    between atoms: _382  and  _383
REMARK  148  A    between atoms: _382  and  _385
REMARK  149  A    between atoms: _385  and  _386
REMARK  150  A    between atoms: _389  and  _391
REMARK  151  A    between atoms: _391  and  _392
REMARK  152  A    between atoms: _391  and  _394
REMARK  153  A    between atoms: _394  and  _395
REMARK  154  A    between atoms: _398  and  _400
REMARK  155  A    between atoms: _400  and  _401
REMARK  156  A    between atoms: _400  and  _403
REMARK  157  A    between atoms: _403  and  _404
REMARK  158  A    between atoms: _407  and  _409
REMARK  159  A    between atoms: _409  and  _410
REMARK  160  A    between atoms: _409  and  _412
REMARK  161  A    between atoms: _412  and  _413
REMARK  162  A    between atoms: _418  and  _420
REMARK  163  A    between atoms: _420  and  _421
REMARK  164  A    between atoms: _420  and  _423
REMARK  165  A    between atoms: _423  and  _424
REMARK  166  A    between atoms: _424  and  _425
REMARK  167  A    between atoms: _430  and  _432
REMARK  168  A    between atoms: _432  and  _433
REMARK  169  A    between atoms: _432  and  _435
REMARK  170  A    between atoms: _435  and  _436
REMARK  171  A    between atoms: _436  and  _437
REMARK  172  A    between atoms: _437  and  _438
REMARK  173  A    between atoms: _447  and  _449
REMARK  174  A    between atoms: _449  and  _450
REMARK  175  A    between atoms: _449  and  _452
REMARK  176  A    between atoms: _452  and  _453
REMARK  177  A    between atoms: _453  and  _454
REMARK  178  A    between atoms: _457  and  _459
REMARK  179  A    between atoms: _459  and  _460
REMARK  180  A    between atoms: _459  and  _462
REMARK  181  A    between atoms: _462  and  _463
REMARK  182  A    between atoms: _463  and  _464
REMARK  183  A    between atoms: _464  and  _465
REMARK  184  A    between atoms: _465  and  _466
REMARK  185  A    between atoms: _470  and  _472
REMARK  186  A    between atoms: _472  and  _473
REMARK  187  A    between atoms: _475  and  _477
REMARK  188  A    between atoms: _477  and  _478
REMARK  189  A    between atoms: _481  and  _483
REMARK  190  A    between atoms: _483  and  _484
REMARK  191  A    between atoms: _483  and  _486
REMARK  192  A    between atoms: _486  and  _487
REMARK  193  A    between atoms: _487  and  _488
REMARK  194  A    between atoms: _493  and  _495
REMARK  195  A    between atoms: _495  and  _496
REMARK  196  A    between atoms: _499  and  _501
REMARK  197  A    between atoms: _501  and  _502
REMARK  198  A    between atoms: _501  and  _504
REMARK  199  A    between atoms: _504  and  _505
REMARK  200  A    between atoms: _508  and  _510
REMARK  201  A    between atoms: _510  and  _511
REMARK  202  A    between atoms: _510  and  _513
REMARK  203  A    between atoms: _516  and  _518
REMARK  204  A    between atoms: _518  and  _519
REMARK  205  A    between atoms: _522  and  _524
REMARK  206  A    between atoms: _524  and  _525
REMARK  207  A    between atoms: _528  and  _530
REMARK  208  A    between atoms: _530  and  _531
REMARK  209  A    between atoms: _530  and  _533
REMARK  210  A    between atoms: _533  and  _534
REMARK                            x       y       z     vdW  Elec       q    Type
REMARK                         _______ _______ _______ _____ _____    ______ ____
ROOT
ATOM      1  O   HOH     1      43.501   4.253   7.919  0.00  0.00    +0.000 OA
ENDROOT
TORSDOF 0
REMARK  Name = ../refined-set-2016/2c94/2c94_pocket.pdb
REMARK  210 active torsions:
REMARK  status: ('A' for Active; 'I' for Inactive)
REMARK    1  A    between atoms: _1  and  _3
REMARK    2  A    between atoms: _3  and  _4
REMARK    3  A    between atoms: _7  and  _9
REMARK    4  A    between atoms: _9  and  _10
REMARK    5  A    between atoms: _9  and  _12
REMARK    6  A    between atoms: _12  and  _13
REMARK    7  A    between atoms: _15  and  _17
REMARK    8  A    between atoms: _17  and  _18
REMARK    9  A    between atoms: _17  and  _20
REMARK   10  A    between atoms: _20  and  _21
REMARK   11  A    between atoms: _23  and  _25
REMARK   12  A    between atoms: _25  and  _26
REMARK   13  A    between atoms: _25  and  _28
REMARK   14  A    between atoms: _28  and  _29
REMARK   15  A    between atoms: _41  and  _42
REMARK   16  A    between atoms: _41  and  _44
REMARK   17  A    between atoms: _44  and  _45
REMARK   18  A    between atoms: _50  and  _52
REMARK   19  A    between atoms: _52  and  _53
REMARK   20  A    between atoms: _52  and  _55
REMARK   21  A    between atoms: _57  and  _59
REMARK   22  A    between atoms: _59  and  _60
REMARK   23  A    between atoms: _59  and  _62
REMARK   24  A    between atoms: _65  and  _67
REMARK   25  A    between atoms: _67  and  _68
REMARK   26  A    between atoms: _67  and  _70
REMARK   27  A    between atoms: _70  and  _71
REMARK   28  A    between atoms: _74  and  _76
REMARK   29  A    between atoms: _76  and  _77
REMARK   30  A    between atoms: _79  and  _81
REMARK   31  A    between atoms: _81  and  _82
REMARK   32  A    between atoms: _85  and  _87
REMARK   33  A    between atoms: _87  and  _88
REMARK   34  A    between atoms: _87  and  _90
REMARK   35  A    between atoms: _90  and  _91
REMARK   36  A    between atoms: _94  and  _96
REMARK   37  A    between atoms: _96  and  _97
REMARK   38  A    between atoms: _96  and  _99
REMARK   39  A    between atoms: _99  and  _100
REMARK   40  A    between atoms: _100  and  _101
REMARK   41  A    between atoms: _104  and  _106
REMARK   42  A    between atoms: _106  and  _107
REMARK   43  A    between atoms: _106  and  _109
REMARK   44  A    between atoms: _109  and  _110
REMARK   45  A    between atoms: _113  and  _115
REMARK   46  A    between atoms: _115  and  _116
REMARK   47  A    between atoms: _115  and  _118
REMARK   48  A    between atoms: _118  and  _119
REMARK   49  A    between atoms: _122  and  _124
REMARK   50  A    between atoms: _124  and  _125
REMARK   51  A    between atoms: _127  and  _129
REMARK   52  A    between atoms: _129  and  _130
REMARK   53  A    between atoms: _129  and  _132
REMARK   54  A    between atoms: _135  and  _137
REMARK   55  A    between atoms: _137  and  _138
REMARK   56  A    between atoms: _137  and  _140
REMARK   57  A    between atoms: _143  and  _145
REMARK   58  A    between atoms: _145  and  _146
REMARK   59  A    between atoms: _145  and  _148
REMARK   60  A    between atoms: _148  and  _149
REMARK   61  A    between atoms: _152  and  _154
REMARK   62  A    between atoms: _154  and  _155
REMARK   63  A    between atoms: _154  and  _157
REMARK   64  A    between atoms: _157  and  _158
REMARK   65  A    between atoms: _158  and  _159
REMARK   66  A    between atoms: _159  and  _160
REMARK   67  A    between atoms: _169  and  _171
REMARK   68  A    between atoms: _171  and  _172
REMARK   69  A    between atoms: _174  and  _176
REMARK   70  A    between atoms: _176  and  _177
REMARK   71  A    between atoms: _176  and  _179
REMARK   72  A    between atoms: _179  and  _180
REMARK   73  A    between atoms: _180  and  _181
REMARK   74  A    between atoms: _186  and  _188
REMARK   75  A    between atoms: _188  and  _189
REMARK   76  A    between atoms: _188  and  _191
REMARK   77  A    between atoms: _191  and  _192
REMARK   78  A    between atoms: _196  and  _197
REMARK   79  A    between atoms: _202  and  _204
REMARK   80  A    between atoms: _204  and  _205
REMARK   81  A    between atoms: _204  and  _207
REMARK   82  A    between atoms: _207  and  _208
REMARK   83  A    between atoms: _213  and  _215
REMARK   84  A    between atoms: _215  and  _216
REMARK   85  A    between atoms: _215  and  _218
REMARK   86  A    between atoms: _218  and  _219
REMARK   87  A    between atoms: _225  and  _227
REMARK   88  A    between atoms: _227  and  _228
REMARK   89  A    between atoms: _227  and  _230
REMARK   90  A    between atoms: _230  and  _231
REMARK   91  A    between atoms: _234  and  _236
REMARK   92  A    between atoms: _236  and  _237
REMARK   93  A    between atoms: _236  and  _239
REMARK   94  A    between atoms: _239  and  _240
REMARK   95  A    between atoms: _245  and  _246
REMARK   96  A    between atoms: _248  and  _250
REMARK   97  A    between atoms: _250  and  _251
REMARK   98  A    between atoms: _250  and  _253
REMARK   99  A    between atoms: _256  and  _258
REMARK  100  A    between atoms: _258  and  _259
REMARK  101  A    between atoms: _258  and  _261
REMARK  102  A    between atoms: _263  and  _265
REMARK  103  A    between atoms: _265  and  _266
REMARK  104  A    between atoms: _269  and  _271
REMARK  105  A    between atoms: _271  and  _272
REMARK  106  A    between atoms: _271  and  _274
REMARK  107  A    between atoms: _277  and  _279
REMARK  108  A    between atoms: _279  and  _280
REMARK  109  A    between atoms: _279  and  _282
REMARK  110  A    between atoms: _285  and  _287
REMARK  111  A    between atoms: _287  and  _288
REMARK  112  A    between atoms: _287  and  _290
REMARK  113  A    between atoms: _290  and  _291
REMARK  114  A    between atoms: _294  and  _296
REMARK  115  A    between atoms: _296  and  _297
REMARK  116  A    between atoms: _296  and  _299
REMARK  117  A    between atoms: _299  and  _300
REMARK  118  A    between atoms: _303  and  _305
REMARK  119  A    between atoms: _305  and  _306
REMARK  120  A    between atoms: _305  and  _308
REMARK  121  A    between atoms: _311  and  _313
REMARK  122  A    between atoms: _313  and  _314
REMARK  123  A    between atoms: _313  and  _316
REMARK  124  A    between atoms: _319  and  _321
REMARK  125  A    between atoms: _321  and  _322
REMARK  126  A    between atoms: _325  and  _327
REMARK  127  A    between atoms: _327  and  _328
REMARK  128  A    between atoms: _327  and  _330
REMARK  129  A    between atoms: _330  and  _331
REMARK  130  A    between atoms: _335  and  _336
REMARK  131  A    between atoms: _341  and  _343
REMARK  132  A    between atoms: _343  and  _344
REMARK  133  A    between atoms: _343  and  _346
REMARK  134  A    between atoms: _346  and  _347
REMARK  135  A    between atoms: _350  and  _352
REMARK  136  A    between atoms: _352  and  _353
REMARK  137  A    between atoms: _356  and  _358
REMARK  138  A    between atoms: _358  and  _359
REMARK  139  A    between atoms: _358  and  _361
REMARK  140  A    between atoms: _361  and  _362
REMARK  141  A    between atoms: _367  and  _369
REMARK  142  A    between atoms: _369  and  _370
REMARK  143  A    between atoms: _372  and  _374
REMARK  144  A    between atoms: _374  and  _375
REMARK  145  A    between atoms: _374  and  _377
REMARK  146  A    between atoms: _380  and  _382
REMARK  147  A    between atoms: _382  and  _383
REMARK  148  A    between atoms: _382  and  _385
REMARK  149  A    between atoms: _385  and  _386
REMARK  150  A    between atoms: _389  and  _391
REMARK  151  A    between atoms: _391  and  _392
REMARK  152  A    between atoms: _391  and  _394
REMARK  153  A    between atoms: _394  and  _395
REMARK  154  A    between atoms: _398  and  _400
REMARK  155  A    between atoms: _400  and  _401
REMARK  156  A    between atoms: _400  and  _403
REMARK  157  A    between atoms: _403  and  _404
REMARK  158  A    between atoms: _407  and  _409
REMARK  159  A    between atoms: _409  and  _410
REMARK  160  A    between atoms: _409  and  _412
REMARK  161  A    between atoms: _412  and  _413
REMARK  162  A    between atoms: _418  and  _420
REMARK  163  A    between atoms: _420  and  _421
REMARK  164  A    between atoms: _420  and  _423
REMARK  165  A    between atoms: _423  and  _424
REMARK  166  A    between atoms: _424  and  _425
REMARK  167  A    between atoms: _430  and  _432
REMARK  168  A    between atoms: _432  and  _433
REMARK  169  A    between atoms: _432  and  _435
REMARK  170  A    between atoms: _435  and  _436
REMARK  171  A    between atoms: _436  and  _437
REMARK  172  A    between atoms: _437  and  _438
REMARK  173  A    between atoms: _447  and  _449
REMARK  174  A    between atoms: _449  and  _450
REMARK  175  A    between atoms: _449  and  _452
REMARK  176  A    between atoms: _452  and  _453
REMARK  177  A    between atoms: _453  and  _454
REMARK  178  A    between atoms: _457  and  _459
REMARK  179  A    between atoms: _459  and  _460
REMARK  180  A    between atoms: _459  and  _462
REMARK  181  A    between atoms: _462  and  _463
REMARK  182  A    between atoms: _463  and  _464
REMARK  183  A    between atoms: _464  and  _465
REMARK  184  A    between atoms: _465  and  _466
REMARK  185  A    between atoms: _470  and  _472
REMARK  186  A    between atoms: _472  and  _473
REMARK  187  A    between atoms: _475  and  _477
REMARK  188  A    between atoms: _477  and  _478
REMARK  189  A    between atoms: _481  and  _483
REMARK  190  A    between atoms: _483  and  _484
REMARK  191  A    between atoms: _483  and  _486
REMARK  192  A    between atoms: _486  and  _487
REMARK  193  A    between atoms: _487  and  _488
REMARK  194  A    between atoms: _493  and  _495
REMARK  195  A    between atoms: _495  and  _496
REMARK  196  A    between atoms: _499  and  _501
REMARK  197  A    between atoms: _501  and  _502
REMARK  198  A    between atoms: _501  and  _504
REMARK  199  A    between atoms: _504  and  _505
REMARK  200  A    between atoms: _508  and  _510
REMARK  201  A    between atoms: _510  and  _511
REMARK  202  A    between atoms: _510  and  _513
REMARK  203  A    between atoms: _516  and  _518
REMARK  204  A    between atoms: _518  and  _519
REMARK  205  A    between atoms: _522  and  _524
REMARK  206  A    between atoms: _524  and  _525
REMARK  207  A    between atoms: _528  and  _530
REMARK  208  A    between atoms: _530  and  _531
REMARK  209  A    between atoms: _530  and  _533
REMARK  210  A    between atoms: _533  and  _534
REMARK                            x       y       z     vdW  Elec       q    Type
REMARK                         _______ _______ _______ _____ _____    ______ ____
ROOT
ATOM      1  O   HOH     1      44.451  -2.343   1.138  0.00  0.00    +0.000 OA
ENDROOT
TORSDOF 0
REMARK  Name = ../refined-set-2016/2c94/2c94_pocket.pdb
REMARK  210 active torsions:
REMARK  status: ('A' for Active; 'I' for Inactive)
REMARK    1  A    between atoms: _1  and  _3
REMARK    2  A    between atoms: _3  and  _4
REMARK    3  A    between atoms: _7  and  _9
REMARK    4  A    between atoms: _9  and  _10
REMARK    5  A    between atoms: _9  and  _12
REMARK    6  A    between atoms: _12  and  _13
REMARK    7  A    between atoms: _15  and  _17
REMARK    8  A    between atoms: _17  and  _18
REMARK    9  A    between atoms: _17  and  _20
REMARK   10  A    between atoms: _20  and  _21
REMARK   11  A    between atoms: _23  and  _25
REMARK   12  A    between atoms: _25  and  _26
REMARK   13  A    between atoms: _25  and  _28
REMARK   14  A    between atoms: _28  and  _29
REMARK   15  A    between atoms: _41  and  _42
REMARK   16  A    between atoms: _41  and  _44
REMARK   17  A    between atoms: _44  and  _45
REMARK   18  A    between atoms: _50  and  _52
REMARK   19  A    between atoms: _52  and  _53
REMARK   20  A    between atoms: _52  and  _55
REMARK   21  A    between atoms: _57  and  _59
REMARK   22  A    between atoms: _59  and  _60
REMARK   23  A    between atoms: _59  and  _62
REMARK   24  A    between atoms: _65  and  _67
REMARK   25  A    between atoms: _67  and  _68
REMARK   26  A    between atoms: _67  and  _70
REMARK   27  A    between atoms: _70  and  _71
REMARK   28  A    between atoms: _74  and  _76
REMARK   29  A    between atoms: _76  and  _77
REMARK   30  A    between atoms: _79  and  _81
REMARK   31  A    between atoms: _81  and  _82
REMARK   32  A    between atoms: _85  and  _87
REMARK   33  A    between atoms: _87  and  _88
REMARK   34  A    between atoms: _87  and  _90
REMARK   35  A    between atoms: _90  and  _91
REMARK   36  A    between atoms: _94  and  _96
REMARK   37  A    between atoms: _96  and  _97
REMARK   38  A    between atoms: _96  and  _99
REMARK   39  A    between atoms: _99  and  _100
REMARK   40  A    between atoms: _100  and  _101
REMARK   41  A    between atoms: _104  and  _106
REMARK   42  A    between atoms: _106  and  _107
REMARK   43  A    between atoms: _106  and  _109
REMARK   44  A    between atoms: _109  and  _110
REMARK   45  A    between atoms: _113  and  _115
REMARK   46  A    between atoms: _115  and  _116
REMARK   47  A    between atoms: _115  and  _118
REMARK   48  A    between atoms: _118  and  _119
REMARK   49  A    between atoms: _122  and  _124
REMARK   50  A    between atoms: _124  and  _125
REMARK   51  A    between atoms: _127  and  _129
REMARK   52  A    between atoms: _129  and  _130
REMARK   53  A    between atoms: _129  and  _132
REMARK   54  A    between atoms: _135  and  _137
REMARK   55  A    between atoms: _137  and  _138
REMARK   56  A    between atoms: _137  and  _140
REMARK   57  A    between atoms: _143  and  _145
REMARK   58  A    between atoms: _145  and  _146
REMARK   59  A    between atoms: _145  and  _148
REMARK   60  A    between atoms: _148  and  _149
REMARK   61  A    between atoms: _152  and  _154
REMARK   62  A    between atoms: _154  and  _155
REMARK   63  A    between atoms: _154  and  _157
REMARK   64  A    between atoms: _157  and  _158
REMARK   65  A    between atoms: _158  and  _159
REMARK   66  A    between atoms: _159  and  _160
REMARK   67  A    between atoms: _169  and  _171
REMARK   68  A    between atoms: _171  and  _172
REMARK   69  A    between atoms: _174  and  _176
REMARK   70  A    between atoms: _176  and  _177
REMARK   71  A    between atoms: _176  and  _179
REMARK   72  A    between atoms: _179  and  _180
REMARK   73  A    between atoms: _180  and  _181
REMARK   74  A    between atoms: _186  and  _188
REMARK   75  A    between atoms: _188  and  _189
REMARK   76  A    between atoms: _188  and  _191
REMARK   77  A    between atoms: _191  and  _192
REMARK   78  A    between atoms: _196  and  _197
REMARK   79  A    between atoms: _202  and  _204
REMARK   80  A    between atoms: _204  and  _205
REMARK   81  A    between atoms: _204  and  _207
REMARK   82  A    between atoms: _207  and  _208
REMARK   83  A    between atoms: _213  and  _215
REMARK   84  A    between atoms: _215  and  _216
REMARK   85  A    between atoms: _215  and  _218
REMARK   86  A    between atoms: _218  and  _219
REMARK   87  A    between atoms: _225  and  _227
REMARK   88  A    between atoms: _227  and  _228
REMARK   89  A    between atoms: _227  and  _230
REMARK   90  A    between atoms: _230  and  _231
REMARK   91  A    between atoms: _234  and  _236
REMARK   92  A    between atoms: _236  and  _237
REMARK   93  A    between atoms: _236  and  _239
REMARK   94  A    between atoms: _239  and  _240
REMARK   95  A    between atoms: _245  and  _246
REMARK   96  A    between atoms: _248  and  _250
REMARK   97  A    between atoms: _250  and  _251
REMARK   98  A    between atoms: _250  and  _253
REMARK   99  A    between atoms: _256  and  _258
REMARK  100  A    between atoms: _258  and  _259
REMARK  101  A    between atoms: _258  and  _261
REMARK  102  A    between atoms: _263  and  _265
REMARK  103  A    between atoms: _265  and  _266
REMARK  104  A    between atoms: _269  and  _271
REMARK  105  A    between atoms: _271  and  _272
REMARK  106  A    between atoms: _271  and  _274
REMARK  107  A    between atoms: _277  and  _279
REMARK  108  A    between atoms: _279  and  _280
REMARK  109  A    between atoms: _279  and  _282
REMARK  110  A    between atoms: _285  and  _287
REMARK  111  A    between atoms: _287  and  _288
REMARK  112  A    between atoms: _287  and  _290
REMARK  113  A    between atoms: _290  and  _291
REMARK  114  A    between atoms: _294  and  _296
REMARK  115  A    between atoms: _296  and  _297
REMARK  116  A    between atoms: _296  and  _299
REMARK  117  A    between atoms: _299  and  _300
REMARK  118  A    between atoms: _303  and  _305
REMARK  119  A    between atoms: _305  and  _306
REMARK  120  A    between atoms: _305  and  _308
REMARK  121  A    between atoms: _311  and  _313
REMARK  122  A    between atoms: _313  and  _314
REMARK  123  A    between atoms: _313  and  _316
REMARK  124  A    between atoms: _319  and  _321
REMARK  125  A    between atoms: _321  and  _322
REMARK  126  A    between atoms: _325  and  _327
REMARK  127  A    between atoms: _327  and  _328
REMARK  128  A    between atoms: _327  and  _330
REMARK  129  A    between atoms: _330  and  _331
REMARK  130  A    between atoms: _335  and  _336
REMARK  131  A    between atoms: _341  and  _343
REMARK  132  A    between atoms: _343  and  _344
REMARK  133  A    between atoms: _343  and  _346
REMARK  134  A    between atoms: _346  and  _347
REMARK  135  A    between atoms: _350  and  _352
REMARK  136  A    between atoms: _352  and  _353
REMARK  137  A    between atoms: _356  and  _358
REMARK  138  A    between atoms: _358  and  _359
REMARK  139  A    between atoms: _358  and  _361
REMARK  140  A    between atoms: _361  and  _362
REMARK  141  A    between atoms: _367  and  _369
REMARK  142  A    between atoms: _369  and  _370
REMARK  143  A    between atoms: _372  and  _374
REMARK  144  A    between atoms: _374  and  _375
REMARK  145  A    between atoms: _374  and  _377
REMARK  146  A    between atoms: _380  and  _382
REMARK  147  A    between atoms: _382  and  _383
REMARK  148  A    between atoms: _382  and  _385
REMARK  149  A    between atoms: _385  and  _386
REMARK  150  A    between atoms: _389  and  _391
REMARK  151  A    between atoms: _391  and  _392
REMARK  152  A    between atoms: _391  and  _394
REMARK  153  A    between atoms: _394  and  _395
REMARK  154  A    between atoms: _398  and  _400
REMARK  155  A    between atoms: _400  and  _401
REMARK  156  A    between atoms: _400  and  _403
REMARK  157  A    between atoms: _403  and  _404
REMARK  158  A    between atoms: _407  and  _409
REMARK  159  A    between atoms: _409  and  _410
REMARK  160  A    between atoms: _409  and  _412
REMARK  161  A    between atoms: _412  and  _413
REMARK  162  A    between atoms: _418  and  _420
REMARK  163  A    between atoms: _420  and  _421
REMARK  164  A    between atoms: _420  and  _423
REMARK  165  A    between atoms: _423  and  _424
REMARK  166  A    between atoms: _424  and  _425
REMARK  167  A    between atoms: _430  and  _432
REMARK  168  A    between atoms: _432  and  _433
REMARK  169  A    between atoms: _432  and  _435
REMARK  170  A    between atoms: _435  and  _436
REMARK  171  A    between atoms: _436  and  _437
REMARK  172  A    between atoms: _437  and  _438
REMARK  173  A    between atoms: _447  and  _449
REMARK  174  A    between atoms: _449  and  _450
REMARK  175  A    between atoms: _449  and  _452
REMARK  176  A    between atoms: _452  and  _453
REMARK  177  A    between atoms: _453  and  _454
REMARK  178  A    between atoms: _457  and  _459
REMARK  179  A    between atoms: _459  and  _460
REMARK  180  A    between atoms: _459  and  _462
REMARK  181  A    between atoms: _462  and  _463
REMARK  182  A    between atoms: _463  and  _464
REMARK  183  A    between atoms: _464  and  _465
REMARK  184  A    between atoms: _465  and  _466
REMARK  185  A    between atoms: _470  and  _472
REMARK  186  A    between atoms: _472  and  _473
REMARK  187  A    between atoms: _475  and  _477
REMARK  188  A    between atoms: _477  and  _478
REMARK  189  A    between atoms: _481  and  _483
REMARK  190  A    between atoms: _483  and  _484
REMARK  191  A    between atoms: _483  and  _486
REMARK  192  A    between atoms: _486  and  _487
REMARK  193  A    between atoms: _487  and  _488
REMARK  194  A    between atoms: _493  and  _495
REMARK  195  A    between atoms: _495  and  _496
REMARK  196  A    between atoms: _499  and  _501
REMARK  197  A    between atoms: _501  and  _502
REMARK  198  A    between atoms: _501  and  _504
REMARK  199  A    between atoms: _504  and  _505
REMARK  200  A    between atoms: _508  and  _510
REMARK  201  A    between atoms: _510  and  _511
REMARK  202  A    between atoms: _510  and  _513
REMARK  203  A    between atoms: _516  and  _518
REMARK  204  A    between atoms: _518  and  _519
REMARK  205  A    between atoms: _522  and  _524
REMARK  206  A    between atoms: _524  and  _525
REMARK  207  A    between atoms: _528  and  _530
REMARK  208  A    between atoms: _530  and  _531
REMARK  209  A    between atoms: _530  and  _533
REMARK  210  A    between atoms: _533  and  _534
REMARK                            x       y       z     vdW  Elec       q    Type
REMARK                         _______ _______ _______ _____ _____    ______ ____
ROOT
ATOM      1  O   HOH     1      37.260   2.964   6.775  0.00  0.00    +0.000 OA
ENDROOT
TORSDOF 0
REMARK  Name = ../refined-set-2016/2c94/2c94_pocket.pdb
REMARK  210 active torsions:
REMARK  status: ('A' for Active; 'I' for Inactive)
REMARK    1  A    between atoms: _1  and  _3
REMARK    2  A    between atoms: _3  and  _4
REMARK    3  A    between atoms: _7  and  _9
REMARK    4  A    between atoms: _9  and  _10
REMARK    5  A    between atoms: _9  and  _12
REMARK    6  A    between atoms: _12  and  _13
REMARK    7  A    between atoms: _15  and  _17
REMARK    8  A    between atoms: _17  and  _18
REMARK    9  A    between atoms: _17  and  _20
REMARK   10  A    between atoms: _20  and  _21
REMARK   11  A    between atoms: _23  and  _25
REMARK   12  A    between atoms: _25  and  _26
REMARK   13  A    between atoms: _25  and  _28
REMARK   14  A    between atoms: _28  and  _29
REMARK   15  A    between atoms: _41  and  _42
REMARK   16  A    between atoms: _41  and  _44
REMARK   17  A    between atoms: _44  and  _45
REMARK   18  A    between atoms: _50  and  _52
REMARK   19  A    between atoms: _52  and  _53
REMARK   20  A    between atoms: _52  and  _55
REMARK   21  A    between atoms: _57  and  _59
REMARK   22  A    between atoms: _59  and  _60
REMARK   23  A    between atoms: _59  and  _62
REMARK   24  A    between atoms: _65  and  _67
REMARK   25  A    between atoms: _67  and  _68
REMARK   26  A    between atoms: _67  and  _70
REMARK   27  A    between atoms: _70  and  _71
REMARK   28  A    between atoms: _74  and  _76
REMARK   29  A    between atoms: _76  and  _77
REMARK   30  A    between atoms: _79  and  _81
REMARK   31  A    between atoms: _81  and  _82
REMARK   32  A    between atoms: _85  and  _87
REMARK   33  A    between atoms: _87  and  _88
REMARK   34  A    between atoms: _87  and  _90
REMARK   35  A    between atoms: _90  and  _91
REMARK   36  A    between atoms: _94  and  _96
REMARK   37  A    between atoms: _96  and  _97
REMARK   38  A    between atoms: _96  and  _99
REMARK   39  A    between atoms: _99  and  _100
REMARK   40  A    between atoms: _100  and  _101
REMARK   41  A    between atoms: _104  and  _106
REMARK   42  A    between atoms: _106  and  _107
REMARK   43  A    between atoms: _106  and  _109
REMARK   44  A    between atoms: _109  and  _110
REMARK   45  A    between atoms: _113  and  _115
REMARK   46  A    between atoms: _115  and  _116
REMARK   47  A    between atoms: _115  and  _118
REMARK   48  A    between atoms: _118  and  _119
REMARK   49  A    between atoms: _122  and  _124
REMARK   50  A    between atoms: _124  and  _125
REMARK   51  A    between atoms: _127  and  _129
REMARK   52  A    between atoms: _129  and  _130
REMARK   53  A    between atoms: _129  and  _132
REMARK   54  A    between atoms: _135  and  _137
REMARK   55  A    between atoms: _137  and  _138
REMARK   56  A    between atoms: _137  and  _140
REMARK   57  A    between atoms: _143  and  _145
REMARK   58  A    between atoms: _145  and  _146
REMARK   59  A    between atoms: _145  and  _148
REMARK   60  A    between atoms: _148  and  _149
REMARK   61  A    between atoms: _152  and  _154
REMARK   62  A    between atoms: _154  and  _155
REMARK   63  A    between atoms: _154  and  _157
REMARK   64  A    between atoms: _157  and  _158
REMARK   65  A    between atoms: _158  and  _159
REMARK   66  A    between atoms: _159  and  _160
REMARK   67  A    between atoms: _169  and  _171
REMARK   68  A    between atoms: _171  and  _172
REMARK   69  A    between atoms: _174  and  _176
REMARK   70  A    between atoms: _176  and  _177
REMARK   71  A    between atoms: _176  and  _179
REMARK   72  A    between atoms: _179  and  _180
REMARK   73  A    between atoms: _180  and  _181
REMARK   74  A    between atoms: _186  and  _188
REMARK   75  A    between atoms: _188  and  _189
REMARK   76  A    between atoms: _188  and  _191
REMARK   77  A    between atoms: _191  and  _192
REMARK   78  A    between atoms: _196  and  _197
REMARK   79  A    between atoms: _202  and  _204
REMARK   80  A    between atoms: _204  and  _205
REMARK   81  A    between atoms: _204  and  _207
REMARK   82  A    between atoms: _207  and  _208
REMARK   83  A    between atoms: _213  and  _215
REMARK   84  A    between atoms: _215  and  _216
REMARK   85  A    between atoms: _215  and  _218
REMARK   86  A    between atoms: _218  and  _219
REMARK   87  A    between atoms: _225  and  _227
REMARK   88  A    between atoms: _227  and  _228
REMARK   89  A    between atoms: _227  and  _230
REMARK   90  A    between atoms: _230  and  _231
REMARK   91  A    between atoms: _234  and  _236
REMARK   92  A    between atoms: _236  and  _237
REMARK   93  A    between atoms: _236  and  _239
REMARK   94  A    between atoms: _239  and  _240
REMARK   95  A    between atoms: _245  and  _246
REMARK   96  A    between atoms: _248  and  _250
REMARK   97  A    between atoms: _250  and  _251
REMARK   98  A    between atoms: _250  and  _253
REMARK   99  A    between atoms: _256  and  _258
REMARK  100  A    between atoms: _258  and  _259
REMARK  101  A    between atoms: _258  and  _261
REMARK  102  A    between atoms: _263  and  _265
REMARK  103  A    between atoms: _265  and  _266
REMARK  104  A    between atoms: _269  and  _271
REMARK  105  A    between atoms: _271  and  _272
REMARK  106  A    between atoms: _271  and  _274
REMARK  107  A    between atoms: _277  and  _279
REMARK  108  A    between atoms: _279  and  _280
REMARK  109  A    between atoms: _279  and  _282
REMARK  110  A    between atoms: _285  and  _287
REMARK  111  A    between atoms: _287  and  _288
REMARK  112  A    between atoms: _287  and  _290
REMARK  113  A    between atoms: _290  and  _291
REMARK  114  A    between atoms: _294  and  _296
REMARK  115  A    between atoms: _296  and  _297
REMARK  116  A    between atoms: _296  and  _299
REMARK  117  A    between atoms: _299  and  _300
REMARK  118  A    between atoms: _303  and  _305
REMARK  119  A    between atoms: _305  and  _306
REMARK  120  A    between atoms: _305  and  _308
REMARK  121  A    between atoms: _311  and  _313
REMARK  122  A    between atoms: _313  and  _314
REMARK  123  A    between atoms: _313  and  _316
REMARK  124  A    between atoms: _319  and  _321
REMARK  125  A    between atoms: _321  and  _322
REMARK  126  A    between atoms: _325  and  _327
REMARK  127  A    between atoms: _327  and  _328
REMARK  128  A    between atoms: _327  and  _330
REMARK  129  A    between atoms: _330  and  _331
REMARK  130  A    between atoms: _335  and  _336
REMARK  131  A    between atoms: _341  and  _343
REMARK  132  A    between atoms: _343  and  _344
REMARK  133  A    between atoms: _343  and  _346
REMARK  134  A    between atoms: _346  and  _347
REMARK  135  A    between atoms: _350  and  _352
REMARK  136  A    between atoms: _352  and  _353
REMARK  137  A    between atoms: _356  and  _358
REMARK  138  A    between atoms: _358  and  _359
REMARK  139  A    between atoms: _358  and  _361
REMARK  140  A    between atoms: _361  and  _362
REMARK  141  A    between atoms: _367  and  _369
REMARK  142  A    between atoms: _369  and  _370
REMARK  143  A    between atoms: _372  and  _374
REMARK  144  A    between atoms: _374  and  _375
REMARK  145  A    between atoms: _374  and  _377
REMARK  146  A    between atoms: _380  and  _382
REMARK  147  A    between atoms: _382  and  _383
REMARK  148  A    between atoms: _382  and  _385
REMARK  149  A    between atoms: _385  and  _386
REMARK  150  A    between atoms: _389  and  _391
REMARK  151  A    between atoms: _391  and  _392
REMARK  152  A    between atoms: _391  and  _394
REMARK  153  A    between atoms: _394  and  _395
REMARK  154  A    between atoms: _398  and  _400
REMARK  155  A    between atoms: _400  and  _401
REMARK  156  A    between atoms: _400  and  _403
REMARK  157  A    between atoms: _403  and  _404
REMARK  158  A    between atoms: _407  and  _409
REMARK  159  A    between atoms: _409  and  _410
REMARK  160  A    between atoms: _409  and  _412
REMARK  161  A    between atoms: _412  and  _413
REMARK  162  A    between atoms: _418  and  _420
REMARK  163  A    between atoms: _420  and  _421
REMARK  164  A    between atoms: _420  and  _423
REMARK  165  A    between atoms: _423  and  _424
REMARK  166  A    between atoms: _424  and  _425
REMARK  167  A    between atoms: _430  and  _432
REMARK  168  A    between atoms: _432  and  _433
REMARK  169  A    between atoms: _432  and  _435
REMARK  170  A    between atoms: _435  and  _436
REMARK  171  A    between atoms: _436  and  _437
REMARK  172  A    between atoms: _437  and  _438
REMARK  173  A    between atoms: _447  and  _449
REMARK  174  A    between atoms: _449  and  _450
REMARK  175  A    between atoms: _449  and  _452
REMARK  176  A    between atoms: _452  and  _453
REMARK  177  A    between atoms: _453  and  _454
REMARK  178  A    between atoms: _457  and  _459
REMARK  179  A    between atoms: _459  and  _460
REMARK  180  A    between atoms: _459  and  _462
REMARK  181  A    between atoms: _462  and  _463
REMARK  182  A    between atoms: _463  and  _464
REMARK  183  A    between atoms: _464  and  _465
REMARK  184  A    between atoms: _465  and  _466
REMARK  185  A    between atoms: _470  and  _472
REMARK  186  A    between atoms: _472  and  _473
REMARK  187  A    between atoms: _475  and  _477
REMARK  188  A    between atoms: _477  and  _478
REMARK  189  A    between atoms: _481  and  _483
REMARK  190  A    between atoms: _483  and  _484
REMARK  191  A    between atoms: _483  and  _486
REMARK  192  A    between atoms: _486  and  _487
REMARK  193  A    between atoms: _487  and  _488
REMARK  194  A    between atoms: _493  and  _495
REMARK  195  A    between atoms: _495  and  _496
REMARK  196  A    between atoms: _499  and  _501
REMARK  197  A    between atoms: _501  and  _502
REMARK  198  A    between atoms: _501  and  _504
REMARK  199  A    between atoms: _504  and  _505
REMARK  200  A    between atoms: _508  and  _510
REMARK  201  A    between atoms: _510  and  _511
REMARK  202  A    between atoms: _510  and  _513
REMARK  203  A    between atoms: _516  and  _518
REMARK  204  A    between atoms: _518  and  _519
REMARK  205  A    between atoms: _522  and  _524
REMARK  206  A    between atoms: _524  and  _525
REMARK  207  A    between atoms: _528  and  _530
REMARK  208  A    between atoms: _530  and  _531
REMARK  209  A    between atoms: _530  and  _533
REMARK  210  A    between atoms: _533  and  _534
REMARK                            x       y       z     vdW  Elec       q    Type
REMARK                         _______ _______ _______ _____ _____    ______ ____
ROOT
ATOM      1  O   HOH     1      39.833  -6.072   5.928  0.00  0.00    +0.000 OA
ENDROOT
TORSDOF 0
REMARK  Name = ../refined-set-2016/2c94/2c94_pocket.pdb
REMARK  210 active torsions:
REMARK  status: ('A' for Active; 'I' for Inactive)
REMARK    1  A    between atoms: _1  and  _3
REMARK    2  A    between atoms: _3  and  _4
REMARK    3  A    between atoms: _7  and  _9
REMARK    4  A    between atoms: _9  and  _10
REMARK    5  A    between atoms: _9  and  _12
REMARK    6  A    between atoms: _12  and  _13
REMARK    7  A    between atoms: _15  and  _17
REMARK    8  A    between atoms: _17  and  _18
REMARK    9  A    between atoms: _17  and  _20
REMARK   10  A    between atoms: _20  and  _21
REMARK   11  A    between atoms: _23  and  _25
REMARK   12  A    between atoms: _25  and  _26
REMARK   13  A    between atoms: _25  and  _28
REMARK   14  A    between atoms: _28  and  _29
REMARK   15  A    between atoms: _41  and  _42
REMARK   16  A    between atoms: _41  and  _44
REMARK   17  A    between atoms: _44  and  _45
REMARK   18  A    between atoms: _50  and  _52
REMARK   19  A    between atoms: _52  and  _53
REMARK   20  A    between atoms: _52  and  _55
REMARK   21  A    between atoms: _57  and  _59
REMARK   22  A    between atoms: _59  and  _60
REMARK   23  A    between atoms: _59  and  _62
REMARK   24  A    between atoms: _65  and  _67
REMARK   25  A    between atoms: _67  and  _68
REMARK   26  A    between atoms: _67  and  _70
REMARK   27  A    between atoms: _70  and  _71
REMARK   28  A    between atoms: _74  and  _76
REMARK   29  A    between atoms: _76  and  _77
REMARK   30  A    between atoms: _79  and  _81
REMARK   31  A    between atoms: _81  and  _82
REMARK   32  A    between atoms: _85  and  _87
REMARK   33  A    between atoms: _87  and  _88
REMARK   34  A    between atoms: _87  and  _90
REMARK   35  A    between atoms: _90  and  _91
REMARK   36  A    between atoms: _94  and  _96
REMARK   37  A    between atoms: _96  and  _97
REMARK   38  A    between atoms: _96  and  _99
REMARK   39  A    between atoms: _99  and  _100
REMARK   40  A    between atoms: _100  and  _101
REMARK   41  A    between atoms: _104  and  _106
REMARK   42  A    between atoms: _106  and  _107
REMARK   43  A    between atoms: _106  and  _109
REMARK   44  A    between atoms: _109  and  _110
REMARK   45  A    between atoms: _113  and  _115
REMARK   46  A    between atoms: _115  and  _116
REMARK   47  A    between atoms: _115  and  _118
REMARK   48  A    between atoms: _118  and  _119
REMARK   49  A    between atoms: _122  and  _124
REMARK   50  A    between atoms: _124  and  _125
REMARK   51  A    between atoms: _127  and  _129
REMARK   52  A    between atoms: _129  and  _130
REMARK   53  A    between atoms: _129  and  _132
REMARK   54  A    between atoms: _135  and  _137
REMARK   55  A    between atoms: _137  and  _138
REMARK   56  A    between atoms: _137  and  _140
REMARK   57  A    between atoms: _143  and  _145
REMARK   58  A    between atoms: _145  and  _146
REMARK   59  A    between atoms: _145  and  _148
REMARK   60  A    between atoms: _148  and  _149
REMARK   61  A    between atoms: _152  and  _154
REMARK   62  A    between atoms: _154  and  _155
REMARK   63  A    between atoms: _154  and  _157
REMARK   64  A    between atoms: _157  and  _158
REMARK   65  A    between atoms: _158  and  _159
REMARK   66  A    between atoms: _159  and  _160
REMARK   67  A    between atoms: _169  and  _171
REMARK   68  A    between atoms: _171  and  _172
REMARK   69  A    between atoms: _174  and  _176
REMARK   70  A    between atoms: _176  and  _177
REMARK   71  A    between atoms: _176  and  _179
REMARK   72  A    between atoms: _179  and  _180
REMARK   73  A    between atoms: _180  and  _181
REMARK   74  A    between atoms: _186  and  _188
REMARK   75  A    between atoms: _188  and  _189
REMARK   76  A    between atoms: _188  and  _191
REMARK   77  A    between atoms: _191  and  _192
REMARK   78  A    between atoms: _196  and  _197
REMARK   79  A    between atoms: _202  and  _204
REMARK   80  A    between atoms: _204  and  _205
REMARK   81  A    between atoms: _204  and  _207
REMARK   82  A    between atoms: _207  and  _208
REMARK   83  A    between atoms: _213  and  _215
REMARK   84  A    between atoms: _215  and  _216
REMARK   85  A    between atoms: _215  and  _218
REMARK   86  A    between atoms: _218  and  _219
REMARK   87  A    between atoms: _225  and  _227
REMARK   88  A    between atoms: _227  and  _228
REMARK   89  A    between atoms: _227  and  _230
REMARK   90  A    between atoms: _230  and  _231
REMARK   91  A    between atoms: _234  and  _236
REMARK   92  A    between atoms: _236  and  _237
REMARK   93  A    between atoms: _236  and  _239
REMARK   94  A    between atoms: _239  and  _240
REMARK   95  A    between atoms: _245  and  _246
REMARK   96  A    between atoms: _248  and  _250
REMARK   97  A    between atoms: _250  and  _251
REMARK   98  A    between atoms: _250  and  _253
REMARK   99  A    between atoms: _256  and  _258
REMARK  100  A    between atoms: _258  and  _259
REMARK  101  A    between atoms: _258  and  _261
REMARK  102  A    between atoms: _263  and  _265
REMARK  103  A    between atoms: _265  and  _266
REMARK  104  A    between atoms: _269  and  _271
REMARK  105  A    between atoms: _271  and  _272
REMARK  106  A    between atoms: _271  and  _274
REMARK  107  A    between atoms: _277  and  _279
REMARK  108  A    between atoms: _279  and  _280
REMARK  109  A    between atoms: _279  and  _282
REMARK  110  A    between atoms: _285  and  _287
REMARK  111  A    between atoms: _287  and  _288
REMARK  112  A    between atoms: _287  and  _290
REMARK  113  A    between atoms: _290  and  _291
REMARK  114  A    between atoms: _294  and  _296
REMARK  115  A    between atoms: _296  and  _297
REMARK  116  A    between atoms: _296  and  _299
REMARK  117  A    between atoms: _299  and  _300
REMARK  118  A    between atoms: _303  and  _305
REMARK  119  A    between atoms: _305  and  _306
REMARK  120  A    between atoms: _305  and  _308
REMARK  121  A    between atoms: _311  and  _313
REMARK  122  A    between atoms: _313  and  _314
REMARK  123  A    between atoms: _313  and  _316
REMARK  124  A    between atoms: _319  and  _321
REMARK  125  A    between atoms: _321  and  _322
REMARK  126  A    between atoms: _325  and  _327
REMARK  127  A    between atoms: _327  and  _328
REMARK  128  A    between atoms: _327  and  _330
REMARK  129  A    between atoms: _330  and  _331
REMARK  130  A    between atoms: _335  and  _336
REMARK  131  A    between atoms: _341  and  _343
REMARK  132  A    between atoms: _343  and  _344
REMARK  133  A    between atoms: _343  and  _346
REMARK  134  A    between atoms: _346  and  _347
REMARK  135  A    between atoms: _350  and  _352
REMARK  136  A    between atoms: _352  and  _353
REMARK  137  A    between atoms: _356  and  _358
REMARK  138  A    between atoms: _358  and  _359
REMARK  139  A    between atoms: _358  and  _361
REMARK  140  A    between atoms: _361  and  _362
REMARK  141  A    between atoms: _367  and  _369
REMARK  142  A    between atoms: _369  and  _370
REMARK  143  A    between atoms: _372  and  _374
REMARK  144  A    between atoms: _374  and  _375
REMARK  145  A    between atoms: _374  and  _377
REMARK  146  A    between atoms: _380  and  _382
REMARK  147  A    between atoms: _382  and  _383
REMARK  148  A    between atoms: _382  and  _385
REMARK  149  A    between atoms: _385  and  _386
REMARK  150  A    between atoms: _389  and  _391
REMARK  151  A    between atoms: _391  and  _392
REMARK  152  A    between atoms: _391  and  _394
REMARK  153  A    between atoms: _394  and  _395
REMARK  154  A    between atoms: _398  and  _400
REMARK  155  A    between atoms: _400  and  _401
REMARK  156  A    between atoms: _400  and  _403
REMARK  157  A    between atoms: _403  and  _404
REMARK  158  A    between atoms: _407  and  _409
REMARK  159  A    between atoms: _409  and  _410
REMARK  160  A    between atoms: _409  and  _412
REMARK  161  A    between atoms: _412  and  _413
REMARK  162  A    between atoms: _418  and  _420
REMARK  163  A    between atoms: _420  and  _421
REMARK  164  A    between atoms: _420  and  _423
REMARK  165  A    between atoms: _423  and  _424
REMARK  166  A    between atoms: _424  and  _425
REMARK  167  A    between atoms: _430  and  _432
REMARK  168  A    between atoms: _432  and  _433
REMARK  169  A    between atoms: _432  and  _435
REMARK  170  A    between atoms: _435  and  _436
REMARK  171  A    between atoms: _436  and  _437
REMARK  172  A    between atoms: _437  and  _438
REMARK  173  A    between atoms: _447  and  _449
REMARK  174  A    between atoms: _449  and  _450
REMARK  175  A    between atoms: _449  and  _452
REMARK  176  A    between atoms: _452  and  _453
REMARK  177  A    between atoms: _453  and  _454
REMARK  178  A    between atoms: _457  and  _459
REMARK  179  A    between atoms: _459  and  _460
REMARK  180  A    between atoms: _459  and  _462
REMARK  181  A    between atoms: _462  and  _463
REMARK  182  A    between atoms: _463  and  _464
REMARK  183  A    between atoms: _464  and  _465
REMARK  184  A    between atoms: _465  and  _466
REMARK  185  A    between atoms: _470  and  _472
REMARK  186  A    between atoms: _472  and  _473
REMARK  187  A    between atoms: _475  and  _477
REMARK  188  A    between atoms: _477  and  _478
REMARK  189  A    between atoms: _481  and  _483
REMARK  190  A    between atoms: _483  and  _484
REMARK  191  A    between atoms: _483  and  _486
REMARK  192  A    between atoms: _486  and  _487
REMARK  193  A    between atoms: _487  and  _488
REMARK  194  A    between atoms: _493  and  _495
REMARK  195  A    between atoms: _495  and  _496
REMARK  196  A    between atoms: _499  and  _501
REMARK  197  A    between atoms: _501  and  _502
REMARK  198  A    between atoms: _501  and  _504
REMARK  199  A    between atoms: _504  and  _505
REMARK  200  A    between atoms: _508  and  _510
REMARK  201  A    between atoms: _510  and  _511
REMARK  202  A    between atoms: _510  and  _513
REMARK  203  A    between atoms: _516  and  _518
REMARK  204  A    between atoms: _518  and  _519
REMARK  205  A    between atoms: _522  and  _524
REMARK  206  A    between atoms: _524  and  _525
REMARK  207  A    between atoms: _528  and  _530
REMARK  208  A    between atoms: _530  and  _531
REMARK  209  A    between atoms: _530  and  _533
REMARK  210  A    between atoms: _533  and  _534
REMARK                            x       y       z     vdW  Elec       q    Type
REMARK                         _______ _______ _______ _____ _____    ______ ____
ROOT
ATOM      1  O   HOH     1      43.429   2.532  16.413  0.00  0.00    +0.000 OA
ENDROOT
TORSDOF 0
REMARK  Name = ../refined-set-2016/2c94/2c94_pocket.pdb
REMARK  210 active torsions:
REMARK  status: ('A' for Active; 'I' for Inactive)
REMARK    1  A    between atoms: _1  and  _3
REMARK    2  A    between atoms: _3  and  _4
REMARK    3  A    between atoms: _7  and  _9
REMARK    4  A    between atoms: _9  and  _10
REMARK    5  A    between atoms: _9  and  _12
REMARK    6  A    between atoms: _12  and  _13
REMARK    7  A    between atoms: _15  and  _17
REMARK    8  A    between atoms: _17  and  _18
REMARK    9  A    between atoms: _17  and  _20
REMARK   10  A    between atoms: _20  and  _21
REMARK   11  A    between atoms: _23  and  _25
REMARK   12  A    between atoms: _25  and  _26
REMARK   13  A    between atoms: _25  and  _28
REMARK   14  A    between atoms: _28  and  _29
REMARK   15  A    between atoms: _41  and  _42
REMARK   16  A    between atoms: _41  and  _44
REMARK   17  A    between atoms: _44  and  _45
REMARK   18  A    between atoms: _50  and  _52
REMARK   19  A    between atoms: _52  and  _53
REMARK   20  A    between atoms: _52  and  _55
REMARK   21  A    between atoms: _57  and  _59
REMARK   22  A    between atoms: _59  and  _60
REMARK   23  A    between atoms: _59  and  _62
REMARK   24  A    between atoms: _65  and  _67
REMARK   25  A    between atoms: _67  and  _68
REMARK   26  A    between atoms: _67  and  _70
REMARK   27  A    between atoms: _70  and  _71
REMARK   28  A    between atoms: _74  and  _76
REMARK   29  A    between atoms: _76  and  _77
REMARK   30  A    between atoms: _79  and  _81
REMARK   31  A    between atoms: _81  and  _82
REMARK   32  A    between atoms: _85  and  _87
REMARK   33  A    between atoms: _87  and  _88
REMARK   34  A    between atoms: _87  and  _90
REMARK   35  A    between atoms: _90  and  _91
REMARK   36  A    between atoms: _94  and  _96
REMARK   37  A    between atoms: _96  and  _97
REMARK   38  A    between atoms: _96  and  _99
REMARK   39  A    between atoms: _99  and  _100
REMARK   40  A    between atoms: _100  and  _101
REMARK   41  A    between atoms: _104  and  _106
REMARK   42  A    between atoms: _106  and  _107
REMARK   43  A    between atoms: _106  and  _109
REMARK   44  A    between atoms: _109  and  _110
REMARK   45  A    between atoms: _113  and  _115
REMARK   46  A    between atoms: _115  and  _116
REMARK   47  A    between atoms: _115  and  _118
REMARK   48  A    between atoms: _118  and  _119
REMARK   49  A    between atoms: _122  and  _124
REMARK   50  A    between atoms: _124  and  _125
REMARK   51  A    between atoms: _127  and  _129
REMARK   52  A    between atoms: _129  and  _130
REMARK   53  A    between atoms: _129  and  _132
REMARK   54  A    between atoms: _135  and  _137
REMARK   55  A    between atoms: _137  and  _138
REMARK   56  A    between atoms: _137  and  _140
REMARK   57  A    between atoms: _143  and  _145
REMARK   58  A    between atoms: _145  and  _146
REMARK   59  A    between atoms: _145  and  _148
REMARK   60  A    between atoms: _148  and  _149
REMARK   61  A    between atoms: _152  and  _154
REMARK   62  A    between atoms: _154  and  _155
REMARK   63  A    between atoms: _154  and  _157
REMARK   64  A    between atoms: _157  and  _158
REMARK   65  A    between atoms: _158  and  _159
REMARK   66  A    between atoms: _159  and  _160
REMARK   67  A    between atoms: _169  and  _171
REMARK   68  A    between atoms: _171  and  _172
REMARK   69  A    between atoms: _174  and  _176
REMARK   70  A    between atoms: _176  and  _177
REMARK   71  A    between atoms: _176  and  _179
REMARK   72  A    between atoms: _179  and  _180
REMARK   73  A    between atoms: _180  and  _181
REMARK   74  A    between atoms: _186  and  _188
REMARK   75  A    between atoms: _188  and  _189
REMARK   76  A    between atoms: _188  and  _191
REMARK   77  A    between atoms: _191  and  _192
REMARK   78  A    between atoms: _196  and  _197
REMARK   79  A    between atoms: _202  and  _204
REMARK   80  A    between atoms: _204  and  _205
REMARK   81  A    between atoms: _204  and  _207
REMARK   82  A    between atoms: _207  and  _208
REMARK   83  A    between atoms: _213  and  _215
REMARK   84  A    between atoms: _215  and  _216
REMARK   85  A    between atoms: _215  and  _218
REMARK   86  A    between atoms: _218  and  _219
REMARK   87  A    between atoms: _225  and  _227
REMARK   88  A    between atoms: _227  and  _228
REMARK   89  A    between atoms: _227  and  _230
REMARK   90  A    between atoms: _230  and  _231
REMARK   91  A    between atoms: _234  and  _236
REMARK   92  A    between atoms: _236  and  _237
REMARK   93  A    between atoms: _236  and  _239
REMARK   94  A    between atoms: _239  and  _240
REMARK   95  A    between atoms: _245  and  _246
REMARK   96  A    between atoms: _248  and  _250
REMARK   97  A    between atoms: _250  and  _251
REMARK   98  A    between atoms: _250  and  _253
REMARK   99  A    between atoms: _256  and  _258
REMARK  100  A    between atoms: _258  and  _259
REMARK  101  A    between atoms: _258  and  _261
REMARK  102  A    between atoms: _263  and  _265
REMARK  103  A    between atoms: _265  and  _266
REMARK  104  A    between atoms: _269  and  _271
REMARK  105  A    between atoms: _271  and  _272
REMARK  106  A    between atoms: _271  and  _274
REMARK  107  A    between atoms: _277  and  _279
REMARK  108  A    between atoms: _279  and  _280
REMARK  109  A    between atoms: _279  and  _282
REMARK  110  A    between atoms: _285  and  _287
REMARK  111  A    between atoms: _287  and  _288
REMARK  112  A    between atoms: _287  and  _290
REMARK  113  A    between atoms: _290  and  _291
REMARK  114  A    between atoms: _294  and  _296
REMARK  115  A    between atoms: _296  and  _297
REMARK  116  A    between atoms: _296  and  _299
REMARK  117  A    between atoms: _299  and  _300
REMARK  118  A    between atoms: _303  and  _305
REMARK  119  A    between atoms: _305  and  _306
REMARK  120  A    between atoms: _305  and  _308
REMARK  121  A    between atoms: _311  and  _313
REMARK  122  A    between atoms: _313  and  _314
REMARK  123  A    between atoms: _313  and  _316
REMARK  124  A    between atoms: _319  and  _321
REMARK  125  A    between atoms: _321  and  _322
REMARK  126  A    between atoms: _325  and  _327
REMARK  127  A    between atoms: _327  and  _328
REMARK  128  A    between atoms: _327  and  _330
REMARK  129  A    between atoms: _330  and  _331
REMARK  130  A    between atoms: _335  and  _336
REMARK  131  A    between atoms: _341  and  _343
REMARK  132  A    between atoms: _343  and  _344
REMARK  133  A    between atoms: _343  and  _346
REMARK  134  A    between atoms: _346  and  _347
REMARK  135  A    between atoms: _350  and  _352
REMARK  136  A    between atoms: _352  and  _353
REMARK  137  A    between atoms: _356  and  _358
REMARK  138  A    between atoms: _358  and  _359
REMARK  139  A    between atoms: _358  and  _361
REMARK  140  A    between atoms: _361  and  _362
REMARK  141  A    between atoms: _367  and  _369
REMARK  142  A    between atoms: _369  and  _370
REMARK  143  A    between atoms: _372  and  _374
REMARK  144  A    between atoms: _374  and  _375
REMARK  145  A    between atoms: _374  and  _377
REMARK  146  A    between atoms: _380  and  _382
REMARK  147  A    between atoms: _382  and  _383
REMARK  148  A    between atoms: _382  and  _385
REMARK  149  A    between atoms: _385  and  _386
REMARK  150  A    between atoms: _389  and  _391
REMARK  151  A    between atoms: _391  and  _392
REMARK  152  A    between atoms: _391  and  _394
REMARK  153  A    between atoms: _394  and  _395
REMARK  154  A    between atoms: _398  and  _400
REMARK  155  A    between atoms: _400  and  _401
REMARK  156  A    between atoms: _400  and  _403
REMARK  157  A    between atoms: _403  and  _404
REMARK  158  A    between atoms: _407  and  _409
REMARK  159  A    between atoms: _409  and  _410
REMARK  160  A    between atoms: _409  and  _412
REMARK  161  A    between atoms: _412  and  _413
REMARK  162  A    between atoms: _418  and  _420
REMARK  163  A    between atoms: _420  and  _421
REMARK  164  A    between atoms: _420  and  _423
REMARK  165  A    between atoms: _423  and  _424
REMARK  166  A    between atoms: _424  and  _425
REMARK  167  A    between atoms: _430  and  _432
REMARK  168  A    between atoms: _432  and  _433
REMARK  169  A    between atoms: _432  and  _435
REMARK  170  A    between atoms: _435  and  _436
REMARK  171  A    between atoms: _436  and  _437
REMARK  172  A    between atoms: _437  and  _438
REMARK  173  A    between atoms: _447  and  _449
REMARK  174  A    between atoms: _449  and  _450
REMARK  175  A    between atoms: _449  and  _452
REMARK  176  A    between atoms: _452  and  _453
REMARK  177  A    between atoms: _453  and  _454
REMARK  178  A    between atoms: _457  and  _459
REMARK  179  A    between atoms: _459  and  _460
REMARK  180  A    between atoms: _459  and  _462
REMARK  181  A    between atoms: _462  and  _463
REMARK  182  A    between atoms: _463  and  _464
REMARK  183  A    between atoms: _464  and  _465
REMARK  184  A    between atoms: _465  and  _466
REMARK  185  A    between atoms: _470  and  _472
REMARK  186  A    between atoms: _472  and  _473
REMARK  187  A    between atoms: _475  and  _477
REMARK  188  A    between atoms: _477  and  _478
REMARK  189  A    between atoms: _481  and  _483
REMARK  190  A    between atoms: _483  and  _484
REMARK  191  A    between atoms: _483  and  _486
REMARK  192  A    between atoms: _486  and  _487
REMARK  193  A    between atoms: _487  and  _488
REMARK  194  A    between atoms: _493  and  _495
REMARK  195  A    between atoms: _495  and  _496
REMARK  196  A    between atoms: _499  and  _501
REMARK  197  A    between atoms: _501  and  _502
REMARK  198  A    between atoms: _501  and  _504
REMARK  199  A    between atoms: _504  and  _505
REMARK  200  A    between atoms: _508  and  _510
REMARK  201  A    between atoms: _510  and  _511
REMARK  202  A    between atoms: _510  and  _513
REMARK  203  A    between atoms: _516  and  _518
REMARK  204  A    between atoms: _518  and  _519
REMARK  205  A    between atoms: _522  and  _524
REMARK  206  A    between atoms: _524  and  _525
REMARK  207  A    between atoms: _528  and  _530
REMARK  208  A    between atoms: _530  and  _531
REMARK  209  A    between atoms: _530  and  _533
REMARK  210  A    between atoms: _533  and  _534
REMARK                            x       y       z     vdW  Elec       q    Type
REMARK                         _______ _______ _______ _____ _____    ______ ____
ROOT
ATOM      1  O   HOH     1      38.276   2.063  17.342  0.00  0.00    +0.000 OA
ENDROOT
TORSDOF 0
REMARK  Name = ../refined-set-2016/2c94/2c94_pocket.pdb
REMARK  210 active torsions:
REMARK  status: ('A' for Active; 'I' for Inactive)
REMARK    1  A    between atoms: _1  and  _3
REMARK    2  A    between atoms: _3  and  _4
REMARK    3  A    between atoms: _7  and  _9
REMARK    4  A    between atoms: _9  and  _10
REMARK    5  A    between atoms: _9  and  _12
REMARK    6  A    between atoms: _12  and  _13
REMARK    7  A    between atoms: _15  and  _17
REMARK    8  A    between atoms: _17  and  _18
REMARK    9  A    between atoms: _17  and  _20
REMARK   10  A    between atoms: _20  and  _21
REMARK   11  A    between atoms: _23  and  _25
REMARK   12  A    between atoms: _25  and  _26
REMARK   13  A    between atoms: _25  and  _28
REMARK   14  A    between atoms: _28  and  _29
REMARK   15  A    between atoms: _41  and  _42
REMARK   16  A    between atoms: _41  and  _44
REMARK   17  A    between atoms: _44  and  _45
REMARK   18  A    between atoms: _50  and  _52
REMARK   19  A    between atoms: _52  and  _53
REMARK   20  A    between atoms: _52  and  _55
REMARK   21  A    between atoms: _57  and  _59
REMARK   22  A    between atoms: _59  and  _60
REMARK   23  A    between atoms: _59  and  _62
REMARK   24  A    between atoms: _65  and  _67
REMARK   25  A    between atoms: _67  and  _68
REMARK   26  A    between atoms: _67  and  _70
REMARK   27  A    between atoms: _70  and  _71
REMARK   28  A    between atoms: _74  and  _76
REMARK   29  A    between atoms: _76  and  _77
REMARK   30  A    between atoms: _79  and  _81
REMARK   31  A    between atoms: _81  and  _82
REMARK   32  A    between atoms: _85  and  _87
REMARK   33  A    between atoms: _87  and  _88
REMARK   34  A    between atoms: _87  and  _90
REMARK   35  A    between atoms: _90  and  _91
REMARK   36  A    between atoms: _94  and  _96
REMARK   37  A    between atoms: _96  and  _97
REMARK   38  A    between atoms: _96  and  _99
REMARK   39  A    between atoms: _99  and  _100
REMARK   40  A    between atoms: _100  and  _101
REMARK   41  A    between atoms: _104  and  _106
REMARK   42  A    between atoms: _106  and  _107
REMARK   43  A    between atoms: _106  and  _109
REMARK   44  A    between atoms: _109  and  _110
REMARK   45  A    between atoms: _113  and  _115
REMARK   46  A    between atoms: _115  and  _116
REMARK   47  A    between atoms: _115  and  _118
REMARK   48  A    between atoms: _118  and  _119
REMARK   49  A    between atoms: _122  and  _124
REMARK   50  A    between atoms: _124  and  _125
REMARK   51  A    between atoms: _127  and  _129
REMARK   52  A    between atoms: _129  and  _130
REMARK   53  A    between atoms: _129  and  _132
REMARK   54  A    between atoms: _135  and  _137
REMARK   55  A    between atoms: _137  and  _138
REMARK   56  A    between atoms: _137  and  _140
REMARK   57  A    between atoms: _143  and  _145
REMARK   58  A    between atoms: _145  and  _146
REMARK   59  A    between atoms: _145  and  _148
REMARK   60  A    between atoms: _148  and  _149
REMARK   61  A    between atoms: _152  and  _154
REMARK   62  A    between atoms: _154  and  _155
REMARK   63  A    between atoms: _154  and  _157
REMARK   64  A    between atoms: _157  and  _158
REMARK   65  A    between atoms: _158  and  _159
REMARK   66  A    between atoms: _159  and  _160
REMARK   67  A    between atoms: _169  and  _171
REMARK   68  A    between atoms: _171  and  _172
REMARK   69  A    between atoms: _174  and  _176
REMARK   70  A    between atoms: _176  and  _177
REMARK   71  A    between atoms: _176  and  _179
REMARK   72  A    between atoms: _179  and  _180
REMARK   73  A    between atoms: _180  and  _181
REMARK   74  A    between atoms: _186  and  _188
REMARK   75  A    between atoms: _188  and  _189
REMARK   76  A    between atoms: _188  and  _191
REMARK   77  A    between atoms: _191  and  _192
REMARK   78  A    between atoms: _196  and  _197
REMARK   79  A    between atoms: _202  and  _204
REMARK   80  A    between atoms: _204  and  _205
REMARK   81  A    between atoms: _204  and  _207
REMARK   82  A    between atoms: _207  and  _208
REMARK   83  A    between atoms: _213  and  _215
REMARK   84  A    between atoms: _215  and  _216
REMARK   85  A    between atoms: _215  and  _218
REMARK   86  A    between atoms: _218  and  _219
REMARK   87  A    between atoms: _225  and  _227
REMARK   88  A    between atoms: _227  and  _228
REMARK   89  A    between atoms: _227  and  _230
REMARK   90  A    between atoms: _230  and  _231
REMARK   91  A    between atoms: _234  and  _236
REMARK   92  A    between atoms: _236  and  _237
REMARK   93  A    between atoms: _236  and  _239
REMARK   94  A    between atoms: _239  and  _240
REMARK   95  A    between atoms: _245  and  _246
REMARK   96  A    between atoms: _248  and  _250
REMARK   97  A    between atoms: _250  and  _251
REMARK   98  A    between atoms: _250  and  _253
REMARK   99  A    between atoms: _256  and  _258
REMARK  100  A    between atoms: _258  and  _259
REMARK  101  A    between atoms: _258  and  _261
REMARK  102  A    between atoms: _263  and  _265
REMARK  103  A    between atoms: _265  and  _266
REMARK  104  A    between atoms: _269  and  _271
REMARK  105  A    between atoms: _271  and  _272
REMARK  106  A    between atoms: _271  and  _274
REMARK  107  A    between atoms: _277  and  _279
REMARK  108  A    between atoms: _279  and  _280
REMARK  109  A    between atoms: _279  and  _282
REMARK  110  A    between atoms: _285  and  _287
REMARK  111  A    between atoms: _287  and  _288
REMARK  112  A    between atoms: _287  and  _290
REMARK  113  A    between atoms: _290  and  _291
REMARK  114  A    between atoms: _294  and  _296
REMARK  115  A    between atoms: _296  and  _297
REMARK  116  A    between atoms: _296  and  _299
REMARK  117  A    between atoms: _299  and  _300
REMARK  118  A    between atoms: _303  and  _305
REMARK  119  A    between atoms: _305  and  _306
REMARK  120  A    between atoms: _305  and  _308
REMARK  121  A    between atoms: _311  and  _313
REMARK  122  A    between atoms: _313  and  _314
REMARK  123  A    between atoms: _313  and  _316
REMARK  124  A    between atoms: _319  and  _321
REMARK  125  A    between atoms: _321  and  _322
REMARK  126  A    between atoms: _325  and  _327
REMARK  127  A    between atoms: _327  and  _328
REMARK  128  A    between atoms: _327  and  _330
REMARK  129  A    between atoms: _330  and  _331
REMARK  130  A    between atoms: _335  and  _336
REMARK  131  A    between atoms: _341  and  _343
REMARK  132  A    between atoms: _343  and  _344
REMARK  133  A    between atoms: _343  and  _346
REMARK  134  A    between atoms: _346  and  _347
REMARK  135  A    between atoms: _350  and  _352
REMARK  136  A    between atoms: _352  and  _353
REMARK  137  A    between atoms: _356  and  _358
REMARK  138  A    between atoms: _358  and  _359
REMARK  139  A    between atoms: _358  and  _361
REMARK  140  A    between atoms: _361  and  _362
REMARK  141  A    between atoms: _367  and  _369
REMARK  142  A    between atoms: _369  and  _370
REMARK  143  A    between atoms: _372  and  _374
REMARK  144  A    between atoms: _374  and  _375
REMARK  145  A    between atoms: _374  and  _377
REMARK  146  A    between atoms: _380  and  _382
REMARK  147  A    between atoms: _382  and  _383
REMARK  148  A    between atoms: _382  and  _385
REMARK  149  A    between atoms: _385  and  _386
REMARK  150  A    between atoms: _389  and  _391
REMARK  151  A    between atoms: _391  and  _392
REMARK  152  A    between atoms: _391  and  _394
REMARK  153  A    between atoms: _394  and  _395
REMARK  154  A    between atoms: _398  and  _400
REMARK  155  A    between atoms: _400  and  _401
REMARK  156  A    between atoms: _400  and  _403
REMARK  157  A    between atoms: _403  and  _404
REMARK  158  A    between atoms: _407  and  _409
REMARK  159  A    between atoms: _409  and  _410
REMARK  160  A    between atoms: _409  and  _412
REMARK  161  A    between atoms: _412  and  _413
REMARK  162  A    between atoms: _418  and  _420
REMARK  163  A    between atoms: _420  and  _421
REMARK  164  A    between atoms: _420  and  _423
REMARK  165  A    between atoms: _423  and  _424
REMARK  166  A    between atoms: _424  and  _425
REMARK  167  A    between atoms: _430  and  _432
REMARK  168  A    between atoms: _432  and  _433
REMARK  169  A    between atoms: _432  and  _435
REMARK  170  A    between atoms: _435  and  _436
REMARK  171  A    between atoms: _436  and  _437
REMARK  172  A    between atoms: _437  and  _438
REMARK  173  A    between atoms: _447  and  _449
REMARK  174  A    between atoms: _449  and  _450
REMARK  175  A    between atoms: _449  and  _452
REMARK  176  A    between atoms: _452  and  _453
REMARK  177  A    between atoms: _453  and  _454
REMARK  178  A    between atoms: _457  and  _459
REMARK  179  A    between atoms: _459  and  _460
REMARK  180  A    between atoms: _459  and  _462
REMARK  181  A    between atoms: _462  and  _463
REMARK  182  A    between atoms: _463  and  _464
REMARK  183  A    between atoms: _464  and  _465
REMARK  184  A    between atoms: _465  and  _466
REMARK  185  A    between atoms: _470  and  _472
REMARK  186  A    between atoms: _472  and  _473
REMARK  187  A    between atoms: _475  and  _477
REMARK  188  A    between atoms: _477  and  _478
REMARK  189  A    between atoms: _481  and  _483
REMARK  190  A    between atoms: _483  and  _484
REMARK  191  A    between atoms: _483  and  _486
REMARK  192  A    between atoms: _486  and  _487
REMARK  193  A    between atoms: _487  and  _488
REMARK  194  A    between atoms: _493  and  _495
REMARK  195  A    between atoms: _495  and  _496
REMARK  196  A    between atoms: _499  and  _501
REMARK  197  A    between atoms: _501  and  _502
REMARK  198  A    between atoms: _501  and  _504
REMARK  199  A    between atoms: _504  and  _505
REMARK  200  A    between atoms: _508  and  _510
REMARK  201  A    between atoms: _510  and  _511
REMARK  202  A    between atoms: _510  and  _513
REMARK  203  A    between atoms: _516  and  _518
REMARK  204  A    between atoms: _518  and  _519
REMARK  205  A    between atoms: _522  and  _524
REMARK  206  A    between atoms: _524  and  _525
REMARK  207  A    between atoms: _528  and  _530
REMARK  208  A    between atoms: _530  and  _531
REMARK  209  A    between atoms: _530  and  _533
REMARK  210  A    between atoms: _533  and  _534
REMARK                            x       y       z     vdW  Elec       q    Type
REMARK                         _______ _______ _______ _____ _____    ______ ____
ROOT
ATOM      1  O   HOH     1      41.060   3.489  17.135  0.00  0.00    +0.000 OA
ENDROOT
TORSDOF 0
REMARK  Name = ../refined-set-2016/2c94/2c94_pocket.pdb
REMARK  210 active torsions:
REMARK  status: ('A' for Active; 'I' for Inactive)
REMARK    1  A    between atoms: _1  and  _3
REMARK    2  A    between atoms: _3  and  _4
REMARK    3  A    between atoms: _7  and  _9
REMARK    4  A    between atoms: _9  and  _10
REMARK    5  A    between atoms: _9  and  _12
REMARK    6  A    between atoms: _12  and  _13
REMARK    7  A    between atoms: _15  and  _17
REMARK    8  A    between atoms: _17  and  _18
REMARK    9  A    between atoms: _17  and  _20
REMARK   10  A    between atoms: _20  and  _21
REMARK   11  A    between atoms: _23  and  _25
REMARK   12  A    between atoms: _25  and  _26
REMARK   13  A    between atoms: _25  and  _28
REMARK   14  A    between atoms: _28  and  _29
REMARK   15  A    between atoms: _41  and  _42
REMARK   16  A    between atoms: _41  and  _44
REMARK   17  A    between atoms: _44  and  _45
REMARK   18  A    between atoms: _50  and  _52
REMARK   19  A    between atoms: _52  and  _53
REMARK   20  A    between atoms: _52  and  _55
REMARK   21  A    between atoms: _57  and  _59
REMARK   22  A    between atoms: _59  and  _60
REMARK   23  A    between atoms: _59  and  _62
REMARK   24  A    between atoms: _65  and  _67
REMARK   25  A    between atoms: _67  and  _68
REMARK   26  A    between atoms: _67  and  _70
REMARK   27  A    between atoms: _70  and  _71
REMARK   28  A    between atoms: _74  and  _76
REMARK   29  A    between atoms: _76  and  _77
REMARK   30  A    between atoms: _79  and  _81
REMARK   31  A    between atoms: _81  and  _82
REMARK   32  A    between atoms: _85  and  _87
REMARK   33  A    between atoms: _87  and  _88
REMARK   34  A    between atoms: _87  and  _90
REMARK   35  A    between atoms: _90  and  _91
REMARK   36  A    between atoms: _94  and  _96
REMARK   37  A    between atoms: _96  and  _97
REMARK   38  A    between atoms: _96  and  _99
REMARK   39  A    between atoms: _99  and  _100
REMARK   40  A    between atoms: _100  and  _101
REMARK   41  A    between atoms: _104  and  _106
REMARK   42  A    between atoms: _106  and  _107
REMARK   43  A    between atoms: _106  and  _109
REMARK   44  A    between atoms: _109  and  _110
REMARK   45  A    between atoms: _113  and  _115
REMARK   46  A    between atoms: _115  and  _116
REMARK   47  A    between atoms: _115  and  _118
REMARK   48  A    between atoms: _118  and  _119
REMARK   49  A    between atoms: _122  and  _124
REMARK   50  A    between atoms: _124  and  _125
REMARK   51  A    between atoms: _127  and  _129
REMARK   52  A    between atoms: _129  and  _130
REMARK   53  A    between atoms: _129  and  _132
REMARK   54  A    between atoms: _135  and  _137
REMARK   55  A    between atoms: _137  and  _138
REMARK   56  A    between atoms: _137  and  _140
REMARK   57  A    between atoms: _143  and  _145
REMARK   58  A    between atoms: _145  and  _146
REMARK   59  A    between atoms: _145  and  _148
REMARK   60  A    between atoms: _148  and  _149
REMARK   61  A    between atoms: _152  and  _154
REMARK   62  A    between atoms: _154  and  _155
REMARK   63  A    between atoms: _154  and  _157
REMARK   64  A    between atoms: _157  and  _158
REMARK   65  A    between atoms: _158  and  _159
REMARK   66  A    between atoms: _159  and  _160
REMARK   67  A    between atoms: _169  and  _171
REMARK   68  A    between atoms: _171  and  _172
REMARK   69  A    between atoms: _174  and  _176
REMARK   70  A    between atoms: _176  and  _177
REMARK   71  A    between atoms: _176  and  _179
REMARK   72  A    between atoms: _179  and  _180
REMARK   73  A    between atoms: _180  and  _181
REMARK   74  A    between atoms: _186  and  _188
REMARK   75  A    between atoms: _188  and  _189
REMARK   76  A    between atoms: _188  and  _191
REMARK   77  A    between atoms: _191  and  _192
REMARK   78  A    between atoms: _196  and  _197
REMARK   79  A    between atoms: _202  and  _204
REMARK   80  A    between atoms: _204  and  _205
REMARK   81  A    between atoms: _204  and  _207
REMARK   82  A    between atoms: _207  and  _208
REMARK   83  A    between atoms: _213  and  _215
REMARK   84  A    between atoms: _215  and  _216
REMARK   85  A    between atoms: _215  and  _218
REMARK   86  A    between atoms: _218  and  _219
REMARK   87  A    between atoms: _225  and  _227
REMARK   88  A    between atoms: _227  and  _228
REMARK   89  A    between atoms: _227  and  _230
REMARK   90  A    between atoms: _230  and  _231
REMARK   91  A    between atoms: _234  and  _236
REMARK   92  A    between atoms: _236  and  _237
REMARK   93  A    between atoms: _236  and  _239
REMARK   94  A    between atoms: _239  and  _240
REMARK   95  A    between atoms: _245  and  _246
REMARK   96  A    between atoms: _248  and  _250
REMARK   97  A    between atoms: _250  and  _251
REMARK   98  A    between atoms: _250  and  _253
REMARK   99  A    between atoms: _256  and  _258
REMARK  100  A    between atoms: _258  and  _259
REMARK  101  A    between atoms: _258  and  _261
REMARK  102  A    between atoms: _263  and  _265
REMARK  103  A    between atoms: _265  and  _266
REMARK  104  A    between atoms: _269  and  _271
REMARK  105  A    between atoms: _271  and  _272
REMARK  106  A    between atoms: _271  and  _274
REMARK  107  A    between atoms: _277  and  _279
REMARK  108  A    between atoms: _279  and  _280
REMARK  109  A    between atoms: _279  and  _282
REMARK  110  A    between atoms: _285  and  _287
REMARK  111  A    between atoms: _287  and  _288
REMARK  112  A    between atoms: _287  and  _290
REMARK  113  A    between atoms: _290  and  _291
REMARK  114  A    between atoms: _294  and  _296
REMARK  115  A    between atoms: _296  and  _297
REMARK  116  A    between atoms: _296  and  _299
REMARK  117  A    between atoms: _299  and  _300
REMARK  118  A    between atoms: _303  and  _305
REMARK  119  A    between atoms: _305  and  _306
REMARK  120  A    between atoms: _305  and  _308
REMARK  121  A    between atoms: _311  and  _313
REMARK  122  A    between atoms: _313  and  _314
REMARK  123  A    between atoms: _313  and  _316
REMARK  124  A    between atoms: _319  and  _321
REMARK  125  A    between atoms: _321  and  _322
REMARK  126  A    between atoms: _325  and  _327
REMARK  127  A    between atoms: _327  and  _328
REMARK  128  A    between atoms: _327  and  _330
REMARK  129  A    between atoms: _330  and  _331
REMARK  130  A    between atoms: _335  and  _336
REMARK  131  A    between atoms: _341  and  _343
REMARK  132  A    between atoms: _343  and  _344
REMARK  133  A    between atoms: _343  and  _346
REMARK  134  A    between atoms: _346  and  _347
REMARK  135  A    between atoms: _350  and  _352
REMARK  136  A    between atoms: _352  and  _353
REMARK  137  A    between atoms: _356  and  _358
REMARK  138  A    between atoms: _358  and  _359
REMARK  139  A    between atoms: _358  and  _361
REMARK  140  A    between atoms: _361  and  _362
REMARK  141  A    between atoms: _367  and  _369
REMARK  142  A    between atoms: _369  and  _370
REMARK  143  A    between atoms: _372  and  _374
REMARK  144  A    between atoms: _374  and  _375
REMARK  145  A    between atoms: _374  and  _377
REMARK  146  A    between atoms: _380  and  _382
REMARK  147  A    between atoms: _382  and  _383
REMARK  148  A    between atoms: _382  and  _385
REMARK  149  A    between atoms: _385  and  _386
REMARK  150  A    between atoms: _389  and  _391
REMARK  151  A    between atoms: _391  and  _392
REMARK  152  A    between atoms: _391  and  _394
REMARK  153  A    between atoms: _394  and  _395
REMARK  154  A    between atoms: _398  and  _400
REMARK  155  A    between atoms: _400  and  _401
REMARK  156  A    between atoms: _400  and  _403
REMARK  157  A    between atoms: _403  and  _404
REMARK  158  A    between atoms: _407  and  _409
REMARK  159  A    between atoms: _409  and  _410
REMARK  160  A    between atoms: _409  and  _412
REMARK  161  A    between atoms: _412  and  _413
REMARK  162  A    between atoms: _418  and  _420
REMARK  163  A    between atoms: _420  and  _421
REMARK  164  A    between atoms: _420  and  _423
REMARK  165  A    between atoms: _423  and  _424
REMARK  166  A    between atoms: _424  and  _425
REMARK  167  A    between atoms: _430  and  _432
REMARK  168  A    between atoms: _432  and  _433
REMARK  169  A    between atoms: _432  and  _435
REMARK  170  A    between atoms: _435  and  _436
REMARK  171  A    between atoms: _436  and  _437
REMARK  172  A    between atoms: _437  and  _438
REMARK  173  A    between atoms: _447  and  _449
REMARK  174  A    between atoms: _449  and  _450
REMARK  175  A    between atoms: _449  and  _452
REMARK  176  A    between atoms: _452  and  _453
REMARK  177  A    between atoms: _453  and  _454
REMARK  178  A    between atoms: _457  and  _459
REMARK  179  A    between atoms: _459  and  _460
REMARK  180  A    between atoms: _459  and  _462
REMARK  181  A    between atoms: _462  and  _463
REMARK  182  A    between atoms: _463  and  _464
REMARK  183  A    between atoms: _464  and  _465
REMARK  184  A    between atoms: _465  and  _466
REMARK  185  A    between atoms: _470  and  _472
REMARK  186  A    between atoms: _472  and  _473
REMARK  187  A    between atoms: _475  and  _477
REMARK  188  A    between atoms: _477  and  _478
REMARK  189  A    between atoms: _481  and  _483
REMARK  190  A    between atoms: _483  and  _484
REMARK  191  A    between atoms: _483  and  _486
REMARK  192  A    between atoms: _486  and  _487
REMARK  193  A    between atoms: _487  and  _488
REMARK  194  A    between atoms: _493  and  _495
REMARK  195  A    between atoms: _495  and  _496
REMARK  196  A    between atoms: _499  and  _501
REMARK  197  A    between atoms: _501  and  _502
REMARK  198  A    between atoms: _501  and  _504
REMARK  199  A    between atoms: _504  and  _505
REMARK  200  A    between atoms: _508  and  _510
REMARK  201  A    between atoms: _510  and  _511
REMARK  202  A    between atoms: _510  and  _513
REMARK  203  A    between atoms: _516  and  _518
REMARK  204  A    between atoms: _518  and  _519
REMARK  205  A    between atoms: _522  and  _524
REMARK  206  A    between atoms: _524  and  _525
REMARK  207  A    between atoms: _528  and  _530
REMARK  208  A    between atoms: _530  and  _531
REMARK  209  A    between atoms: _530  and  _533
REMARK  210  A    between atoms: _533  and  _534
REMARK                            x       y       z     vdW  Elec       q    Type
REMARK                         _______ _______ _______ _____ _____    ______ ____
ROOT
ATOM      1  O   HOH     1      42.815   7.258   6.785  0.00  0.00    +0.000 OA
ENDROOT
TORSDOF 0
REMARK  Name = ../refined-set-2016/2c94/2c94_pocket.pdb
REMARK  210 active torsions:
REMARK  status: ('A' for Active; 'I' for Inactive)
REMARK    1  A    between atoms: _1  and  _3
REMARK    2  A    between atoms: _3  and  _4
REMARK    3  A    between atoms: _7  and  _9
REMARK    4  A    between atoms: _9  and  _10
REMARK    5  A    between atoms: _9  and  _12
REMARK    6  A    between atoms: _12  and  _13
REMARK    7  A    between atoms: _15  and  _17
REMARK    8  A    between atoms: _17  and  _18
REMARK    9  A    between atoms: _17  and  _20
REMARK   10  A    between atoms: _20  and  _21
REMARK   11  A    between atoms: _23  and  _25
REMARK   12  A    between atoms: _25  and  _26
REMARK   13  A    between atoms: _25  and  _28
REMARK   14  A    between atoms: _28  and  _29
REMARK   15  A    between atoms: _41  and  _42
REMARK   16  A    between atoms: _41  and  _44
REMARK   17  A    between atoms: _44  and  _45
REMARK   18  A    between atoms: _50  and  _52
REMARK   19  A    between atoms: _52  and  _53
REMARK   20  A    between atoms: _52  and  _55
REMARK   21  A    between atoms: _57  and  _59
REMARK   22  A    between atoms: _59  and  _60
REMARK   23  A    between atoms: _59  and  _62
REMARK   24  A    between atoms: _65  and  _67
REMARK   25  A    between atoms: _67  and  _68
REMARK   26  A    between atoms: _67  and  _70
REMARK   27  A    between atoms: _70  and  _71
REMARK   28  A    between atoms: _74  and  _76
REMARK   29  A    between atoms: _76  and  _77
REMARK   30  A    between atoms: _79  and  _81
REMARK   31  A    between atoms: _81  and  _82
REMARK   32  A    between atoms: _85  and  _87
REMARK   33  A    between atoms: _87  and  _88
REMARK   34  A    between atoms: _87  and  _90
REMARK   35  A    between atoms: _90  and  _91
REMARK   36  A    between atoms: _94  and  _96
REMARK   37  A    between atoms: _96  and  _97
REMARK   38  A    between atoms: _96  and  _99
REMARK   39  A    between atoms: _99  and  _100
REMARK   40  A    between atoms: _100  and  _101
REMARK   41  A    between atoms: _104  and  _106
REMARK   42  A    between atoms: _106  and  _107
REMARK   43  A    between atoms: _106  and  _109
REMARK   44  A    between atoms: _109  and  _110
REMARK   45  A    between atoms: _113  and  _115
REMARK   46  A    between atoms: _115  and  _116
REMARK   47  A    between atoms: _115  and  _118
REMARK   48  A    between atoms: _118  and  _119
REMARK   49  A    between atoms: _122  and  _124
REMARK   50  A    between atoms: _124  and  _125
REMARK   51  A    between atoms: _127  and  _129
REMARK   52  A    between atoms: _129  and  _130
REMARK   53  A    between atoms: _129  and  _132
REMARK   54  A    between atoms: _135  and  _137
REMARK   55  A    between atoms: _137  and  _138
REMARK   56  A    between atoms: _137  and  _140
REMARK   57  A    between atoms: _143  and  _145
REMARK   58  A    between atoms: _145  and  _146
REMARK   59  A    between atoms: _145  and  _148
REMARK   60  A    between atoms: _148  and  _149
REMARK   61  A    between atoms: _152  and  _154
REMARK   62  A    between atoms: _154  and  _155
REMARK   63  A    between atoms: _154  and  _157
REMARK   64  A    between atoms: _157  and  _158
REMARK   65  A    between atoms: _158  and  _159
REMARK   66  A    between atoms: _159  and  _160
REMARK   67  A    between atoms: _169  and  _171
REMARK   68  A    between atoms: _171  and  _172
REMARK   69  A    between atoms: _174  and  _176
REMARK   70  A    between atoms: _176  and  _177
REMARK   71  A    between atoms: _176  and  _179
REMARK   72  A    between atoms: _179  and  _180
REMARK   73  A    between atoms: _180  and  _181
REMARK   74  A    between atoms: _186  and  _188
REMARK   75  A    between atoms: _188  and  _189
REMARK   76  A    between atoms: _188  and  _191
REMARK   77  A    between atoms: _191  and  _192
REMARK   78  A    between atoms: _196  and  _197
REMARK   79  A    between atoms: _202  and  _204
REMARK   80  A    between atoms: _204  and  _205
REMARK   81  A    between atoms: _204  and  _207
REMARK   82  A    between atoms: _207  and  _208
REMARK   83  A    between atoms: _213  and  _215
REMARK   84  A    between atoms: _215  and  _216
REMARK   85  A    between atoms: _215  and  _218
REMARK   86  A    between atoms: _218  and  _219
REMARK   87  A    between atoms: _225  and  _227
REMARK   88  A    between atoms: _227  and  _228
REMARK   89  A    between atoms: _227  and  _230
REMARK   90  A    between atoms: _230  and  _231
REMARK   91  A    between atoms: _234  and  _236
REMARK   92  A    between atoms: _236  and  _237
REMARK   93  A    between atoms: _236  and  _239
REMARK   94  A    between atoms: _239  and  _240
REMARK   95  A    between atoms: _245  and  _246
REMARK   96  A    between atoms: _248  and  _250
REMARK   97  A    between atoms: _250  and  _251
REMARK   98  A    between atoms: _250  and  _253
REMARK   99  A    between atoms: _256  and  _258
REMARK  100  A    between atoms: _258  and  _259
REMARK  101  A    between atoms: _258  and  _261
REMARK  102  A    between atoms: _263  and  _265
REMARK  103  A    between atoms: _265  and  _266
REMARK  104  A    between atoms: _269  and  _271
REMARK  105  A    between atoms: _271  and  _272
REMARK  106  A    between atoms: _271  and  _274
REMARK  107  A    between atoms: _277  and  _279
REMARK  108  A    between atoms: _279  and  _280
REMARK  109  A    between atoms: _279  and  _282
REMARK  110  A    between atoms: _285  and  _287
REMARK  111  A    between atoms: _287  and  _288
REMARK  112  A    between atoms: _287  and  _290
REMARK  113  A    between atoms: _290  and  _291
REMARK  114  A    between atoms: _294  and  _296
REMARK  115  A    between atoms: _296  and  _297
REMARK  116  A    between atoms: _296  and  _299
REMARK  117  A    between atoms: _299  and  _300
REMARK  118  A    between atoms: _303  and  _305
REMARK  119  A    between atoms: _305  and  _306
REMARK  120  A    between atoms: _305  and  _308
REMARK  121  A    between atoms: _311  and  _313
REMARK  122  A    between atoms: _313  and  _314
REMARK  123  A    between atoms: _313  and  _316
REMARK  124  A    between atoms: _319  and  _321
REMARK  125  A    between atoms: _321  and  _322
REMARK  126  A    between atoms: _325  and  _327
REMARK  127  A    between atoms: _327  and  _328
REMARK  128  A    between atoms: _327  and  _330
REMARK  129  A    between atoms: _330  and  _331
REMARK  130  A    between atoms: _335  and  _336
REMARK  131  A    between atoms: _341  and  _343
REMARK  132  A    between atoms: _343  and  _344
REMARK  133  A    between atoms: _343  and  _346
REMARK  134  A    between atoms: _346  and  _347
REMARK  135  A    between atoms: _350  and  _352
REMARK  136  A    between atoms: _352  and  _353
REMARK  137  A    between atoms: _356  and  _358
REMARK  138  A    between atoms: _358  and  _359
REMARK  139  A    between atoms: _358  and  _361
REMARK  140  A    between atoms: _361  and  _362
REMARK  141  A    between atoms: _367  and  _369
REMARK  142  A    between atoms: _369  and  _370
REMARK  143  A    between atoms: _372  and  _374
REMARK  144  A    between atoms: _374  and  _375
REMARK  145  A    between atoms: _374  and  _377
REMARK  146  A    between atoms: _380  and  _382
REMARK  147  A    between atoms: _382  and  _383
REMARK  148  A    between atoms: _382  and  _385
REMARK  149  A    between atoms: _385  and  _386
REMARK  150  A    between atoms: _389  and  _391
REMARK  151  A    between atoms: _391  and  _392
REMARK  152  A    between atoms: _391  and  _394
REMARK  153  A    between atoms: _394  and  _395
REMARK  154  A    between atoms: _398  and  _400
REMARK  155  A    between atoms: _400  and  _401
REMARK  156  A    between atoms: _400  and  _403
REMARK  157  A    between atoms: _403  and  _404
REMARK  158  A    between atoms: _407  and  _409
REMARK  159  A    between atoms: _409  and  _410
REMARK  160  A    between atoms: _409  and  _412
REMARK  161  A    between atoms: _412  and  _413
REMARK  162  A    between atoms: _418  and  _420
REMARK  163  A    between atoms: _420  and  _421
REMARK  164  A    between atoms: _420  and  _423
REMARK  165  A    between atoms: _423  and  _424
REMARK  166  A    between atoms: _424  and  _425
REMARK  167  A    between atoms: _430  and  _432
REMARK  168  A    between atoms: _432  and  _433
REMARK  169  A    between atoms: _432  and  _435
REMARK  170  A    between atoms: _435  and  _436
REMARK  171  A    between atoms: _436  and  _437
REMARK  172  A    between atoms: _437  and  _438
REMARK  173  A    between atoms: _447  and  _449
REMARK  174  A    between atoms: _449  and  _450
REMARK  175  A    between atoms: _449  and  _452
REMARK  176  A    between atoms: _452  and  _453
REMARK  177  A    between atoms: _453  and  _454
REMARK  178  A    between atoms: _457  and  _459
REMARK  179  A    between atoms: _459  and  _460
REMARK  180  A    between atoms: _459  and  _462
REMARK  181  A    between atoms: _462  and  _463
REMARK  182  A    between atoms: _463  and  _464
REMARK  183  A    between atoms: _464  and  _465
REMARK  184  A    between atoms: _465  and  _466
REMARK  185  A    between atoms: _470  and  _472
REMARK  186  A    between atoms: _472  and  _473
REMARK  187  A    between atoms: _475  and  _477
REMARK  188  A    between atoms: _477  and  _478
REMARK  189  A    between atoms: _481  and  _483
REMARK  190  A    between atoms: _483  and  _484
REMARK  191  A    between atoms: _483  and  _486
REMARK  192  A    between atoms: _486  and  _487
REMARK  193  A    between atoms: _487  and  _488
REMARK  194  A    between atoms: _493  and  _495
REMARK  195  A    between atoms: _495  and  _496
REMARK  196  A    between atoms: _499  and  _501
REMARK  197  A    between atoms: _501  and  _502
REMARK  198  A    between atoms: _501  and  _504
REMARK  199  A    between atoms: _504  and  _505
REMARK  200  A    between atoms: _508  and  _510
REMARK  201  A    between atoms: _510  and  _511
REMARK  202  A    between atoms: _510  and  _513
REMARK  203  A    between atoms: _516  and  _518
REMARK  204  A    between atoms: _518  and  _519
REMARK  205  A    between atoms: _522  and  _524
REMARK  206  A    between atoms: _524  and  _525
REMARK  207  A    between atoms: _528  and  _530
REMARK  208  A    between atoms: _530  and  _531
REMARK  209  A    between atoms: _530  and  _533
REMARK  210  A    between atoms: _533  and  _534
REMARK                            x       y       z     vdW  Elec       q    Type
REMARK                         _______ _______ _______ _____ _____    ______ ____
ROOT
ATOM      1  O   HOH     1      44.906   4.285  14.714  0.00  0.00    +0.000 OA
ENDROOT
TORSDOF 0
REMARK  Name = ../refined-set-2016/2c94/2c94_pocket.pdb
REMARK  210 active torsions:
REMARK  status: ('A' for Active; 'I' for Inactive)
REMARK    1  A    between atoms: _1  and  _3
REMARK    2  A    between atoms: _3  and  _4
REMARK    3  A    between atoms: _7  and  _9
REMARK    4  A    between atoms: _9  and  _10
REMARK    5  A    between atoms: _9  and  _12
REMARK    6  A    between atoms: _12  and  _13
REMARK    7  A    between atoms: _15  and  _17
REMARK    8  A    between atoms: _17  and  _18
REMARK    9  A    between atoms: _17  and  _20
REMARK   10  A    between atoms: _20  and  _21
REMARK   11  A    between atoms: _23  and  _25
REMARK   12  A    between atoms: _25  and  _26
REMARK   13  A    between atoms: _25  and  _28
REMARK   14  A    between atoms: _28  and  _29
REMARK   15  A    between atoms: _41  and  _42
REMARK   16  A    between atoms: _41  and  _44
REMARK   17  A    between atoms: _44  and  _45
REMARK   18  A    between atoms: _50  and  _52
REMARK   19  A    between atoms: _52  and  _53
REMARK   20  A    between atoms: _52  and  _55
REMARK   21  A    between atoms: _57  and  _59
REMARK   22  A    between atoms: _59  and  _60
REMARK   23  A    between atoms: _59  and  _62
REMARK   24  A    between atoms: _65  and  _67
REMARK   25  A    between atoms: _67  and  _68
REMARK   26  A    between atoms: _67  and  _70
REMARK   27  A    between atoms: _70  and  _71
REMARK   28  A    between atoms: _74  and  _76
REMARK   29  A    between atoms: _76  and  _77
REMARK   30  A    between atoms: _79  and  _81
REMARK   31  A    between atoms: _81  and  _82
REMARK   32  A    between atoms: _85  and  _87
REMARK   33  A    between atoms: _87  and  _88
REMARK   34  A    between atoms: _87  and  _90
REMARK   35  A    between atoms: _90  and  _91
REMARK   36  A    between atoms: _94  and  _96
REMARK   37  A    between atoms: _96  and  _97
REMARK   38  A    between atoms: _96  and  _99
REMARK   39  A    between atoms: _99  and  _100
REMARK   40  A    between atoms: _100  and  _101
REMARK   41  A    between atoms: _104  and  _106
REMARK   42  A    between atoms: _106  and  _107
REMARK   43  A    between atoms: _106  and  _109
REMARK   44  A    between atoms: _109  and  _110
REMARK   45  A    between atoms: _113  and  _115
REMARK   46  A    between atoms: _115  and  _116
REMARK   47  A    between atoms: _115  and  _118
REMARK   48  A    between atoms: _118  and  _119
REMARK   49  A    between atoms: _122  and  _124
REMARK   50  A    between atoms: _124  and  _125
REMARK   51  A    between atoms: _127  and  _129
REMARK   52  A    between atoms: _129  and  _130
REMARK   53  A    between atoms: _129  and  _132
REMARK   54  A    between atoms: _135  and  _137
REMARK   55  A    between atoms: _137  and  _138
REMARK   56  A    between atoms: _137  and  _140
REMARK   57  A    between atoms: _143  and  _145
REMARK   58  A    between atoms: _145  and  _146
REMARK   59  A    between atoms: _145  and  _148
REMARK   60  A    between atoms: _148  and  _149
REMARK   61  A    between atoms: _152  and  _154
REMARK   62  A    between atoms: _154  and  _155
REMARK   63  A    between atoms: _154  and  _157
REMARK   64  A    between atoms: _157  and  _158
REMARK   65  A    between atoms: _158  and  _159
REMARK   66  A    between atoms: _159  and  _160
REMARK   67  A    between atoms: _169  and  _171
REMARK   68  A    between atoms: _171  and  _172
REMARK   69  A    between atoms: _174  and  _176
REMARK   70  A    between atoms: _176  and  _177
REMARK   71  A    between atoms: _176  and  _179
REMARK   72  A    between atoms: _179  and  _180
REMARK   73  A    between atoms: _180  and  _181
REMARK   74  A    between atoms: _186  and  _188
REMARK   75  A    between atoms: _188  and  _189
REMARK   76  A    between atoms: _188  and  _191
REMARK   77  A    between atoms: _191  and  _192
REMARK   78  A    between atoms: _196  and  _197
REMARK   79  A    between atoms: _202  and  _204
REMARK   80  A    between atoms: _204  and  _205
REMARK   81  A    between atoms: _204  and  _207
REMARK   82  A    between atoms: _207  and  _208
REMARK   83  A    between atoms: _213  and  _215
REMARK   84  A    between atoms: _215  and  _216
REMARK   85  A    between atoms: _215  and  _218
REMARK   86  A    between atoms: _218  and  _219
REMARK   87  A    between atoms: _225  and  _227
REMARK   88  A    between atoms: _227  and  _228
REMARK   89  A    between atoms: _227  and  _230
REMARK   90  A    between atoms: _230  and  _231
REMARK   91  A    between atoms: _234  and  _236
REMARK   92  A    between atoms: _236  and  _237
REMARK   93  A    between atoms: _236  and  _239
REMARK   94  A    between atoms: _239  and  _240
REMARK   95  A    between atoms: _245  and  _246
REMARK   96  A    between atoms: _248  and  _250
REMARK   97  A    between atoms: _250  and  _251
REMARK   98  A    between atoms: _250  and  _253
REMARK   99  A    between atoms: _256  and  _258
REMARK  100  A    between atoms: _258  and  _259
REMARK  101  A    between atoms: _258  and  _261
REMARK  102  A    between atoms: _263  and  _265
REMARK  103  A    between atoms: _265  and  _266
REMARK  104  A    between atoms: _269  and  _271
REMARK  105  A    between atoms: _271  and  _272
REMARK  106  A    between atoms: _271  and  _274
REMARK  107  A    between atoms: _277  and  _279
REMARK  108  A    between atoms: _279  and  _280
REMARK  109  A    between atoms: _279  and  _282
REMARK  110  A    between atoms: _285  and  _287
REMARK  111  A    between atoms: _287  and  _288
REMARK  112  A    between atoms: _287  and  _290
REMARK  113  A    between atoms: _290  and  _291
REMARK  114  A    between atoms: _294  and  _296
REMARK  115  A    between atoms: _296  and  _297
REMARK  116  A    between atoms: _296  and  _299
REMARK  117  A    between atoms: _299  and  _300
REMARK  118  A    between atoms: _303  and  _305
REMARK  119  A    between atoms: _305  and  _306
REMARK  120  A    between atoms: _305  and  _308
REMARK  121  A    between atoms: _311  and  _313
REMARK  122  A    between atoms: _313  and  _314
REMARK  123  A    between atoms: _313  and  _316
REMARK  124  A    between atoms: _319  and  _321
REMARK  125  A    between atoms: _321  and  _322
REMARK  126  A    between atoms: _325  and  _327
REMARK  127  A    between atoms: _327  and  _328
REMARK  128  A    between atoms: _327  and  _330
REMARK  129  A    between atoms: _330  and  _331
REMARK  130  A    between atoms: _335  and  _336
REMARK  131  A    between atoms: _341  and  _343
REMARK  132  A    between atoms: _343  and  _344
REMARK  133  A    between atoms: _343  and  _346
REMARK  134  A    between atoms: _346  and  _347
REMARK  135  A    between atoms: _350  and  _352
REMARK  136  A    between atoms: _352  and  _353
REMARK  137  A    between atoms: _356  and  _358
REMARK  138  A    between atoms: _358  and  _359
REMARK  139  A    between atoms: _358  and  _361
REMARK  140  A    between atoms: _361  and  _362
REMARK  141  A    between atoms: _367  and  _369
REMARK  142  A    between atoms: _369  and  _370
REMARK  143  A    between atoms: _372  and  _374
REMARK  144  A    between atoms: _374  and  _375
REMARK  145  A    between atoms: _374  and  _377
REMARK  146  A    between atoms: _380  and  _382
REMARK  147  A    between atoms: _382  and  _383
REMARK  148  A    between atoms: _382  and  _385
REMARK  149  A    between atoms: _385  and  _386
REMARK  150  A    between atoms: _389  and  _391
REMARK  151  A    between atoms: _391  and  _392
REMARK  152  A    between atoms: _391  and  _394
REMARK  153  A    between atoms: _394  and  _395
REMARK  154  A    between atoms: _398  and  _400
REMARK  155  A    between atoms: _400  and  _401
REMARK  156  A    between atoms: _400  and  _403
REMARK  157  A    between atoms: _403  and  _404
REMARK  158  A    between atoms: _407  and  _409
REMARK  159  A    between atoms: _409  and  _410
REMARK  160  A    between atoms: _409  and  _412
REMARK  161  A    between atoms: _412  and  _413
REMARK  162  A    between atoms: _418  and  _420
REMARK  163  A    between atoms: _420  and  _421
REMARK  164  A    between atoms: _420  and  _423
REMARK  165  A    between atoms: _423  and  _424
REMARK  166  A    between atoms: _424  and  _425
REMARK  167  A    between atoms: _430  and  _432
REMARK  168  A    between atoms: _432  and  _433
REMARK  169  A    between atoms: _432  and  _435
REMARK  170  A    between atoms: _435  and  _436
REMARK  171  A    between atoms: _436  and  _437
REMARK  172  A    between atoms: _437  and  _438
REMARK  173  A    between atoms: _447  and  _449
REMARK  174  A    between atoms: _449  and  _450
REMARK  175  A    between atoms: _449  and  _452
REMARK  176  A    between atoms: _452  and  _453
REMARK  177  A    between atoms: _453  and  _454
REMARK  178  A    between atoms: _457  and  _459
REMARK  179  A    between atoms: _459  and  _460
REMARK  180  A    between atoms: _459  and  _462
REMARK  181  A    between atoms: _462  and  _463
REMARK  182  A    between atoms: _463  and  _464
REMARK  183  A    between atoms: _464  and  _465
REMARK  184  A    between atoms: _465  and  _466
REMARK  185  A    between atoms: _470  and  _472
REMARK  186  A    between atoms: _472  and  _473
REMARK  187  A    between atoms: _475  and  _477
REMARK  188  A    between atoms: _477  and  _478
REMARK  189  A    between atoms: _481  and  _483
REMARK  190  A    between atoms: _483  and  _484
REMARK  191  A    between atoms: _483  and  _486
REMARK  192  A    between atoms: _486  and  _487
REMARK  193  A    between atoms: _487  and  _488
REMARK  194  A    between atoms: _493  and  _495
REMARK  195  A    between atoms: _495  and  _496
REMARK  196  A    between atoms: _499  and  _501
REMARK  197  A    between atoms: _501  and  _502
REMARK  198  A    between atoms: _501  and  _504
REMARK  199  A    between atoms: _504  and  _505
REMARK  200  A    between atoms: _508  and  _510
REMARK  201  A    between atoms: _510  and  _511
REMARK  202  A    between atoms: _510  and  _513
REMARK  203  A    between atoms: _516  and  _518
REMARK  204  A    between atoms: _518  and  _519
REMARK  205  A    between atoms: _522  and  _524
REMARK  206  A    between atoms: _524  and  _525
REMARK  207  A    between atoms: _528  and  _530
REMARK  208  A    between atoms: _530  and  _531
REMARK  209  A    between atoms: _530  and  _533
REMARK  210  A    between atoms: _533  and  _534
REMARK                            x       y       z     vdW  Elec       q    Type
REMARK                         _______ _______ _______ _____ _____    ______ ____
ROOT
ATOM      1  O   HOH     1      54.918   7.176  -2.268  0.00  0.00    +0.000 OA
ENDROOT
TORSDOF 0
REMARK  Name = ../refined-set-2016/2c94/2c94_pocket.pdb
REMARK  210 active torsions:
REMARK  status: ('A' for Active; 'I' for Inactive)
REMARK    1  A    between atoms: _1  and  _3
REMARK    2  A    between atoms: _3  and  _4
REMARK    3  A    between atoms: _7  and  _9
REMARK    4  A    between atoms: _9  and  _10
REMARK    5  A    between atoms: _9  and  _12
REMARK    6  A    between atoms: _12  and  _13
REMARK    7  A    between atoms: _15  and  _17
REMARK    8  A    between atoms: _17  and  _18
REMARK    9  A    between atoms: _17  and  _20
REMARK   10  A    between atoms: _20  and  _21
REMARK   11  A    between atoms: _23  and  _25
REMARK   12  A    between atoms: _25  and  _26
REMARK   13  A    between atoms: _25  and  _28
REMARK   14  A    between atoms: _28  and  _29
REMARK   15  A    between atoms: _41  and  _42
REMARK   16  A    between atoms: _41  and  _44
REMARK   17  A    between atoms: _44  and  _45
REMARK   18  A    between atoms: _50  and  _52
REMARK   19  A    between atoms: _52  and  _53
REMARK   20  A    between atoms: _52  and  _55
REMARK   21  A    between atoms: _57  and  _59
REMARK   22  A    between atoms: _59  and  _60
REMARK   23  A    between atoms: _59  and  _62
REMARK   24  A    between atoms: _65  and  _67
REMARK   25  A    between atoms: _67  and  _68
REMARK   26  A    between atoms: _67  and  _70
REMARK   27  A    between atoms: _70  and  _71
REMARK   28  A    between atoms: _74  and  _76
REMARK   29  A    between atoms: _76  and  _77
REMARK   30  A    between atoms: _79  and  _81
REMARK   31  A    between atoms: _81  and  _82
REMARK   32  A    between atoms: _85  and  _87
REMARK   33  A    between atoms: _87  and  _88
REMARK   34  A    between atoms: _87  and  _90
REMARK   35  A    between atoms: _90  and  _91
REMARK   36  A    between atoms: _94  and  _96
REMARK   37  A    between atoms: _96  and  _97
REMARK   38  A    between atoms: _96  and  _99
REMARK   39  A    between atoms: _99  and  _100
REMARK   40  A    between atoms: _100  and  _101
REMARK   41  A    between atoms: _104  and  _106
REMARK   42  A    between atoms: _106  and  _107
REMARK   43  A    between atoms: _106  and  _109
REMARK   44  A    between atoms: _109  and  _110
REMARK   45  A    between atoms: _113  and  _115
REMARK   46  A    between atoms: _115  and  _116
REMARK   47  A    between atoms: _115  and  _118
REMARK   48  A    between atoms: _118  and  _119
REMARK   49  A    between atoms: _122  and  _124
REMARK   50  A    between atoms: _124  and  _125
REMARK   51  A    between atoms: _127  and  _129
REMARK   52  A    between atoms: _129  and  _130
REMARK   53  A    between atoms: _129  and  _132
REMARK   54  A    between atoms: _135  and  _137
REMARK   55  A    between atoms: _137  and  _138
REMARK   56  A    between atoms: _137  and  _140
REMARK   57  A    between atoms: _143  and  _145
REMARK   58  A    between atoms: _145  and  _146
REMARK   59  A    between atoms: _145  and  _148
REMARK   60  A    between atoms: _148  and  _149
REMARK   61  A    between atoms: _152  and  _154
REMARK   62  A    between atoms: _154  and  _155
REMARK   63  A    between atoms: _154  and  _157
REMARK   64  A    between atoms: _157  and  _158
REMARK   65  A    between atoms: _158  and  _159
REMARK   66  A    between atoms: _159  and  _160
REMARK   67  A    between atoms: _169  and  _171
REMARK   68  A    between atoms: _171  and  _172
REMARK   69  A    between atoms: _174  and  _176
REMARK   70  A    between atoms: _176  and  _177
REMARK   71  A    between atoms: _176  and  _179
REMARK   72  A    between atoms: _179  and  _180
REMARK   73  A    between atoms: _180  and  _181
REMARK   74  A    between atoms: _186  and  _188
REMARK   75  A    between atoms: _188  and  _189
REMARK   76  A    between atoms: _188  and  _191
REMARK   77  A    between atoms: _191  and  _192
REMARK   78  A    between atoms: _196  and  _197
REMARK   79  A    between atoms: _202  and  _204
REMARK   80  A    between atoms: _204  and  _205
REMARK   81  A    between atoms: _204  and  _207
REMARK   82  A    between atoms: _207  and  _208
REMARK   83  A    between atoms: _213  and  _215
REMARK   84  A    between atoms: _215  and  _216
REMARK   85  A    between atoms: _215  and  _218
REMARK   86  A    between atoms: _218  and  _219
REMARK   87  A    between atoms: _225  and  _227
REMARK   88  A    between atoms: _227  and  _228
REMARK   89  A    between atoms: _227  and  _230
REMARK   90  A    between atoms: _230  and  _231
REMARK   91  A    between atoms: _234  and  _236
REMARK   92  A    between atoms: _236  and  _237
REMARK   93  A    between atoms: _236  and  _239
REMARK   94  A    between atoms: _239  and  _240
REMARK   95  A    between atoms: _245  and  _246
REMARK   96  A    between atoms: _248  and  _250
REMARK   97  A    between atoms: _250  and  _251
REMARK   98  A    between atoms: _250  and  _253
REMARK   99  A    between atoms: _256  and  _258
REMARK  100  A    between atoms: _258  and  _259
REMARK  101  A    between atoms: _258  and  _261
REMARK  102  A    between atoms: _263  and  _265
REMARK  103  A    between atoms: _265  and  _266
REMARK  104  A    between atoms: _269  and  _271
REMARK  105  A    between atoms: _271  and  _272
REMARK  106  A    between atoms: _271  and  _274
REMARK  107  A    between atoms: _277  and  _279
REMARK  108  A    between atoms: _279  and  _280
REMARK  109  A    between atoms: _279  and  _282
REMARK  110  A    between atoms: _285  and  _287
REMARK  111  A    between atoms: _287  and  _288
REMARK  112  A    between atoms: _287  and  _290
REMARK  113  A    between atoms: _290  and  _291
REMARK  114  A    between atoms: _294  and  _296
REMARK  115  A    between atoms: _296  and  _297
REMARK  116  A    between atoms: _296  and  _299
REMARK  117  A    between atoms: _299  and  _300
REMARK  118  A    between atoms: _303  and  _305
REMARK  119  A    between atoms: _305  and  _306
REMARK  120  A    between atoms: _305  and  _308
REMARK  121  A    between atoms: _311  and  _313
REMARK  122  A    between atoms: _313  and  _314
REMARK  123  A    between atoms: _313  and  _316
REMARK  124  A    between atoms: _319  and  _321
REMARK  125  A    between atoms: _321  and  _322
REMARK  126  A    between atoms: _325  and  _327
REMARK  127  A    between atoms: _327  and  _328
REMARK  128  A    between atoms: _327  and  _330
REMARK  129  A    between atoms: _330  and  _331
REMARK  130  A    between atoms: _335  and  _336
REMARK  131  A    between atoms: _341  and  _343
REMARK  132  A    between atoms: _343  and  _344
REMARK  133  A    between atoms: _343  and  _346
REMARK  134  A    between atoms: _346  and  _347
REMARK  135  A    between atoms: _350  and  _352
REMARK  136  A    between atoms: _352  and  _353
REMARK  137  A    between atoms: _356  and  _358
REMARK  138  A    between atoms: _358  and  _359
REMARK  139  A    between atoms: _358  and  _361
REMARK  140  A    between atoms: _361  and  _362
REMARK  141  A    between atoms: _367  and  _369
REMARK  142  A    between atoms: _369  and  _370
REMARK  143  A    between atoms: _372  and  _374
REMARK  144  A    between atoms: _374  and  _375
REMARK  145  A    between atoms: _374  and  _377
REMARK  146  A    between atoms: _380  and  _382
REMARK  147  A    between atoms: _382  and  _383
REMARK  148  A    between atoms: _382  and  _385
REMARK  149  A    between atoms: _385  and  _386
REMARK  150  A    between atoms: _389  and  _391
REMARK  151  A    between atoms: _391  and  _392
REMARK  152  A    between atoms: _391  and  _394
REMARK  153  A    between atoms: _394  and  _395
REMARK  154  A    between atoms: _398  and  _400
REMARK  155  A    between atoms: _400  and  _401
REMARK  156  A    between atoms: _400  and  _403
REMARK  157  A    between atoms: _403  and  _404
REMARK  158  A    between atoms: _407  and  _409
REMARK  159  A    between atoms: _409  and  _410
REMARK  160  A    between atoms: _409  and  _412
REMARK  161  A    between atoms: _412  and  _413
REMARK  162  A    between atoms: _418  and  _420
REMARK  163  A    between atoms: _420  and  _421
REMARK  164  A    between atoms: _420  and  _423
REMARK  165  A    between atoms: _423  and  _424
REMARK  166  A    between atoms: _424  and  _425
REMARK  167  A    between atoms: _430  and  _432
REMARK  168  A    between atoms: _432  and  _433
REMARK  169  A    between atoms: _432  and  _435
REMARK  170  A    between atoms: _435  and  _436
REMARK  171  A    between atoms: _436  and  _437
REMARK  172  A    between atoms: _437  and  _438
REMARK  173  A    between atoms: _447  and  _449
REMARK  174  A    between atoms: _449  and  _450
REMARK  175  A    between atoms: _449  and  _452
REMARK  176  A    between atoms: _452  and  _453
REMARK  177  A    between atoms: _453  and  _454
REMARK  178  A    between atoms: _457  and  _459
REMARK  179  A    between atoms: _459  and  _460
REMARK  180  A    between atoms: _459  and  _462
REMARK  181  A    between atoms: _462  and  _463
REMARK  182  A    between atoms: _463  and  _464
REMARK  183  A    between atoms: _464  and  _465
REMARK  184  A    between atoms: _465  and  _466
REMARK  185  A    between atoms: _470  and  _472
REMARK  186  A    between atoms: _472  and  _473
REMARK  187  A    between atoms: _475  and  _477
REMARK  188  A    between atoms: _477  and  _478
REMARK  189  A    between atoms: _481  and  _483
REMARK  190  A    between atoms: _483  and  _484
REMARK  191  A    between atoms: _483  and  _486
REMARK  192  A    between atoms: _486  and  _487
REMARK  193  A    between atoms: _487  and  _488
REMARK  194  A    between atoms: _493  and  _495
REMARK  195  A    between atoms: _495  and  _496
REMARK  196  A    between atoms: _499  and  _501
REMARK  197  A    between atoms: _501  and  _502
REMARK  198  A    between atoms: _501  and  _504
REMARK  199  A    between atoms: _504  and  _505
REMARK  200  A    between atoms: _508  and  _510
REMARK  201  A    between atoms: _510  and  _511
REMARK  202  A    between atoms: _510  and  _513
REMARK  203  A    between atoms: _516  and  _518
REMARK  204  A    between atoms: _518  and  _519
REMARK  205  A    between atoms: _522  and  _524
REMARK  206  A    between atoms: _524  and  _525
REMARK  207  A    between atoms: _528  and  _530
REMARK  208  A    between atoms: _530  and  _531
REMARK  209  A    between atoms: _530  and  _533
REMARK  210  A    between atoms: _533  and  _534
REMARK                            x       y       z     vdW  Elec       q    Type
REMARK                         _______ _______ _______ _____ _____    ______ ____
ROOT
ATOM      1  O   HOH     1      51.220   7.525  -5.268  0.00  0.00    +0.000 OA
ENDROOT
TORSDOF 0
REMARK  Name = ../refined-set-2016/2c94/2c94_pocket.pdb
REMARK  210 active torsions:
REMARK  status: ('A' for Active; 'I' for Inactive)
REMARK    1  A    between atoms: _1  and  _3
REMARK    2  A    between atoms: _3  and  _4
REMARK    3  A    between atoms: _7  and  _9
REMARK    4  A    between atoms: _9  and  _10
REMARK    5  A    between atoms: _9  and  _12
REMARK    6  A    between atoms: _12  and  _13
REMARK    7  A    between atoms: _15  and  _17
REMARK    8  A    between atoms: _17  and  _18
REMARK    9  A    between atoms: _17  and  _20
REMARK   10  A    between atoms: _20  and  _21
REMARK   11  A    between atoms: _23  and  _25
REMARK   12  A    between atoms: _25  and  _26
REMARK   13  A    between atoms: _25  and  _28
REMARK   14  A    between atoms: _28  and  _29
REMARK   15  A    between atoms: _41  and  _42
REMARK   16  A    between atoms: _41  and  _44
REMARK   17  A    between atoms: _44  and  _45
REMARK   18  A    between atoms: _50  and  _52
REMARK   19  A    between atoms: _52  and  _53
REMARK   20  A    between atoms: _52  and  _55
REMARK   21  A    between atoms: _57  and  _59
REMARK   22  A    between atoms: _59  and  _60
REMARK   23  A    between atoms: _59  and  _62
REMARK   24  A    between atoms: _65  and  _67
REMARK   25  A    between atoms: _67  and  _68
REMARK   26  A    between atoms: _67  and  _70
REMARK   27  A    between atoms: _70  and  _71
REMARK   28  A    between atoms: _74  and  _76
REMARK   29  A    between atoms: _76  and  _77
REMARK   30  A    between atoms: _79  and  _81
REMARK   31  A    between atoms: _81  and  _82
REMARK   32  A    between atoms: _85  and  _87
REMARK   33  A    between atoms: _87  and  _88
REMARK   34  A    between atoms: _87  and  _90
REMARK   35  A    between atoms: _90  and  _91
REMARK   36  A    between atoms: _94  and  _96
REMARK   37  A    between atoms: _96  and  _97
REMARK   38  A    between atoms: _96  and  _99
REMARK   39  A    between atoms: _99  and  _100
REMARK   40  A    between atoms: _100  and  _101
REMARK   41  A    between atoms: _104  and  _106
REMARK   42  A    between atoms: _106  and  _107
REMARK   43  A    between atoms: _106  and  _109
REMARK   44  A    between atoms: _109  and  _110
REMARK   45  A    between atoms: _113  and  _115
REMARK   46  A    between atoms: _115  and  _116
REMARK   47  A    between atoms: _115  and  _118
REMARK   48  A    between atoms: _118  and  _119
REMARK   49  A    between atoms: _122  and  _124
REMARK   50  A    between atoms: _124  and  _125
REMARK   51  A    between atoms: _127  and  _129
REMARK   52  A    between atoms: _129  and  _130
REMARK   53  A    between atoms: _129  and  _132
REMARK   54  A    between atoms: _135  and  _137
REMARK   55  A    between atoms: _137  and  _138
REMARK   56  A    between atoms: _137  and  _140
REMARK   57  A    between atoms: _143  and  _145
REMARK   58  A    between atoms: _145  and  _146
REMARK   59  A    between atoms: _145  and  _148
REMARK   60  A    between atoms: _148  and  _149
REMARK   61  A    between atoms: _152  and  _154
REMARK   62  A    between atoms: _154  and  _155
REMARK   63  A    between atoms: _154  and  _157
REMARK   64  A    between atoms: _157  and  _158
REMARK   65  A    between atoms: _158  and  _159
REMARK   66  A    between atoms: _159  and  _160
REMARK   67  A    between atoms: _169  and  _171
REMARK   68  A    between atoms: _171  and  _172
REMARK   69  A    between atoms: _174  and  _176
REMARK   70  A    between atoms: _176  and  _177
REMARK   71  A    between atoms: _176  and  _179
REMARK   72  A    between atoms: _179  and  _180
REMARK   73  A    between atoms: _180  and  _181
REMARK   74  A    between atoms: _186  and  _188
REMARK   75  A    between atoms: _188  and  _189
REMARK   76  A    between atoms: _188  and  _191
REMARK   77  A    between atoms: _191  and  _192
REMARK   78  A    between atoms: _196  and  _197
REMARK   79  A    between atoms: _202  and  _204
REMARK   80  A    between atoms: _204  and  _205
REMARK   81  A    between atoms: _204  and  _207
REMARK   82  A    between atoms: _207  and  _208
REMARK   83  A    between atoms: _213  and  _215
REMARK   84  A    between atoms: _215  and  _216
REMARK   85  A    between atoms: _215  and  _218
REMARK   86  A    between atoms: _218  and  _219
REMARK   87  A    between atoms: _225  and  _227
REMARK   88  A    between atoms: _227  and  _228
REMARK   89  A    between atoms: _227  and  _230
REMARK   90  A    between atoms: _230  and  _231
REMARK   91  A    between atoms: _234  and  _236
REMARK   92  A    between atoms: _236  and  _237
REMARK   93  A    between atoms: _236  and  _239
REMARK   94  A    between atoms: _239  and  _240
REMARK   95  A    between atoms: _245  and  _246
REMARK   96  A    between atoms: _248  and  _250
REMARK   97  A    between atoms: _250  and  _251
REMARK   98  A    between atoms: _250  and  _253
REMARK   99  A    between atoms: _256  and  _258
REMARK  100  A    between atoms: _258  and  _259
REMARK  101  A    between atoms: _258  and  _261
REMARK  102  A    between atoms: _263  and  _265
REMARK  103  A    between atoms: _265  and  _266
REMARK  104  A    between atoms: _269  and  _271
REMARK  105  A    between atoms: _271  and  _272
REMARK  106  A    between atoms: _271  and  _274
REMARK  107  A    between atoms: _277  and  _279
REMARK  108  A    between atoms: _279  and  _280
REMARK  109  A    between atoms: _279  and  _282
REMARK  110  A    between atoms: _285  and  _287
REMARK  111  A    between atoms: _287  and  _288
REMARK  112  A    between atoms: _287  and  _290
REMARK  113  A    between atoms: _290  and  _291
REMARK  114  A    between atoms: _294  and  _296
REMARK  115  A    between atoms: _296  and  _297
REMARK  116  A    between atoms: _296  and  _299
REMARK  117  A    between atoms: _299  and  _300
REMARK  118  A    between atoms: _303  and  _305
REMARK  119  A    between atoms: _305  and  _306
REMARK  120  A    between atoms: _305  and  _308
REMARK  121  A    between atoms: _311  and  _313
REMARK  122  A    between atoms: _313  and  _314
REMARK  123  A    between atoms: _313  and  _316
REMARK  124  A    between atoms: _319  and  _321
REMARK  125  A    between atoms: _321  and  _322
REMARK  126  A    between atoms: _325  and  _327
REMARK  127  A    between atoms: _327  and  _328
REMARK  128  A    between atoms: _327  and  _330
REMARK  129  A    between atoms: _330  and  _331
REMARK  130  A    between atoms: _335  and  _336
REMARK  131  A    between atoms: _341  and  _343
REMARK  132  A    between atoms: _343  and  _344
REMARK  133  A    between atoms: _343  and  _346
REMARK  134  A    between atoms: _346  and  _347
REMARK  135  A    between atoms: _350  and  _352
REMARK  136  A    between atoms: _352  and  _353
REMARK  137  A    between atoms: _356  and  _358
REMARK  138  A    between atoms: _358  and  _359
REMARK  139  A    between atoms: _358  and  _361
REMARK  140  A    between atoms: _361  and  _362
REMARK  141  A    between atoms: _367  and  _369
REMARK  142  A    between atoms: _369  and  _370
REMARK  143  A    between atoms: _372  and  _374
REMARK  144  A    between atoms: _374  and  _375
REMARK  145  A    between atoms: _374  and  _377
REMARK  146  A    between atoms: _380  and  _382
REMARK  147  A    between atoms: _382  and  _383
REMARK  148  A    between atoms: _382  and  _385
REMARK  149  A    between atoms: _385  and  _386
REMARK  150  A    between atoms: _389  and  _391
REMARK  151  A    between atoms: _391  and  _392
REMARK  152  A    between atoms: _391  and  _394
REMARK  153  A    between atoms: _394  and  _395
REMARK  154  A    between atoms: _398  and  _400
REMARK  155  A    between atoms: _400  and  _401
REMARK  156  A    between atoms: _400  and  _403
REMARK  157  A    between atoms: _403  and  _404
REMARK  158  A    between atoms: _407  and  _409
REMARK  159  A    between atoms: _409  and  _410
REMARK  160  A    between atoms: _409  and  _412
REMARK  161  A    between atoms: _412  and  _413
REMARK  162  A    between atoms: _418  and  _420
REMARK  163  A    between atoms: _420  and  _421
REMARK  164  A    between atoms: _420  and  _423
REMARK  165  A    between atoms: _423  and  _424
REMARK  166  A    between atoms: _424  and  _425
REMARK  167  A    between atoms: _430  and  _432
REMARK  168  A    between atoms: _432  and  _433
REMARK  169  A    between atoms: _432  and  _435
REMARK  170  A    between atoms: _435  and  _436
REMARK  171  A    between atoms: _436  and  _437
REMARK  172  A    between atoms: _437  and  _438
REMARK  173  A    between atoms: _447  and  _449
REMARK  174  A    between atoms: _449  and  _450
REMARK  175  A    between atoms: _449  and  _452
REMARK  176  A    between atoms: _452  and  _453
REMARK  177  A    between atoms: _453  and  _454
REMARK  178  A    between atoms: _457  and  _459
REMARK  179  A    between atoms: _459  and  _460
REMARK  180  A    between atoms: _459  and  _462
REMARK  181  A    between atoms: _462  and  _463
REMARK  182  A    between atoms: _463  and  _464
REMARK  183  A    between atoms: _464  and  _465
REMARK  184  A    between atoms: _465  and  _466
REMARK  185  A    between atoms: _470  and  _472
REMARK  186  A    between atoms: _472  and  _473
REMARK  187  A    between atoms: _475  and  _477
REMARK  188  A    between atoms: _477  and  _478
REMARK  189  A    between atoms: _481  and  _483
REMARK  190  A    between atoms: _483  and  _484
REMARK  191  A    between atoms: _483  and  _486
REMARK  192  A    between atoms: _486  and  _487
REMARK  193  A    between atoms: _487  and  _488
REMARK  194  A    between atoms: _493  and  _495
REMARK  195  A    between atoms: _495  and  _496
REMARK  196  A    between atoms: _499  and  _501
REMARK  197  A    between atoms: _501  and  _502
REMARK  198  A    between atoms: _501  and  _504
REMARK  199  A    between atoms: _504  and  _505
REMARK  200  A    between atoms: _508  and  _510
REMARK  201  A    between atoms: _510  and  _511
REMARK  202  A    between atoms: _510  and  _513
REMARK  203  A    between atoms: _516  and  _518
REMARK  204  A    between atoms: _518  and  _519
REMARK  205  A    between atoms: _522  and  _524
REMARK  206  A    between atoms: _524  and  _525
REMARK  207  A    between atoms: _528  and  _530
REMARK  208  A    between atoms: _530  and  _531
REMARK  209  A    between atoms: _530  and  _533
REMARK  210  A    between atoms: _533  and  _534
REMARK                            x       y       z     vdW  Elec       q    Type
REMARK                         _______ _______ _______ _____ _____    ______ ____
ROOT
ATOM      1  O   HOH     1      48.674   6.808  -4.790  0.00  0.00    +0.000 OA
ENDROOT
TORSDOF 0
REMARK  Name = ../refined-set-2016/2c94/2c94_pocket.pdb
REMARK  210 active torsions:
REMARK  status: ('A' for Active; 'I' for Inactive)
REMARK    1  A    between atoms: _1  and  _3
REMARK    2  A    between atoms: _3  and  _4
REMARK    3  A    between atoms: _7  and  _9
REMARK    4  A    between atoms: _9  and  _10
REMARK    5  A    between atoms: _9  and  _12
REMARK    6  A    between atoms: _12  and  _13
REMARK    7  A    between atoms: _15  and  _17
REMARK    8  A    between atoms: _17  and  _18
REMARK    9  A    between atoms: _17  and  _20
REMARK   10  A    between atoms: _20  and  _21
REMARK   11  A    between atoms: _23  and  _25
REMARK   12  A    between atoms: _25  and  _26
REMARK   13  A    between atoms: _25  and  _28
REMARK   14  A    between atoms: _28  and  _29
REMARK   15  A    between atoms: _41  and  _42
REMARK   16  A    between atoms: _41  and  _44
REMARK   17  A    between atoms: _44  and  _45
REMARK   18  A    between atoms: _50  and  _52
REMARK   19  A    between atoms: _52  and  _53
REMARK   20  A    between atoms: _52  and  _55
REMARK   21  A    between atoms: _57  and  _59
REMARK   22  A    between atoms: _59  and  _60
REMARK   23  A    between atoms: _59  and  _62
REMARK   24  A    between atoms: _65  and  _67
REMARK   25  A    between atoms: _67  and  _68
REMARK   26  A    between atoms: _67  and  _70
REMARK   27  A    between atoms: _70  and  _71
REMARK   28  A    between atoms: _74  and  _76
REMARK   29  A    between atoms: _76  and  _77
REMARK   30  A    between atoms: _79  and  _81
REMARK   31  A    between atoms: _81  and  _82
REMARK   32  A    between atoms: _85  and  _87
REMARK   33  A    between atoms: _87  and  _88
REMARK   34  A    between atoms: _87  and  _90
REMARK   35  A    between atoms: _90  and  _91
REMARK   36  A    between atoms: _94  and  _96
REMARK   37  A    between atoms: _96  and  _97
REMARK   38  A    between atoms: _96  and  _99
REMARK   39  A    between atoms: _99  and  _100
REMARK   40  A    between atoms: _100  and  _101
REMARK   41  A    between atoms: _104  and  _106
REMARK   42  A    between atoms: _106  and  _107
REMARK   43  A    between atoms: _106  and  _109
REMARK   44  A    between atoms: _109  and  _110
REMARK   45  A    between atoms: _113  and  _115
REMARK   46  A    between atoms: _115  and  _116
REMARK   47  A    between atoms: _115  and  _118
REMARK   48  A    between atoms: _118  and  _119
REMARK   49  A    between atoms: _122  and  _124
REMARK   50  A    between atoms: _124  and  _125
REMARK   51  A    between atoms: _127  and  _129
REMARK   52  A    between atoms: _129  and  _130
REMARK   53  A    between atoms: _129  and  _132
REMARK   54  A    between atoms: _135  and  _137
REMARK   55  A    between atoms: _137  and  _138
REMARK   56  A    between atoms: _137  and  _140
REMARK   57  A    between atoms: _143  and  _145
REMARK   58  A    between atoms: _145  and  _146
REMARK   59  A    between atoms: _145  and  _148
REMARK   60  A    between atoms: _148  and  _149
REMARK   61  A    between atoms: _152  and  _154
REMARK   62  A    between atoms: _154  and  _155
REMARK   63  A    between atoms: _154  and  _157
REMARK   64  A    between atoms: _157  and  _158
REMARK   65  A    between atoms: _158  and  _159
REMARK   66  A    between atoms: _159  and  _160
REMARK   67  A    between atoms: _169  and  _171
REMARK   68  A    between atoms: _171  and  _172
REMARK   69  A    between atoms: _174  and  _176
REMARK   70  A    between atoms: _176  and  _177
REMARK   71  A    between atoms: _176  and  _179
REMARK   72  A    between atoms: _179  and  _180
REMARK   73  A    between atoms: _180  and  _181
REMARK   74  A    between atoms: _186  and  _188
REMARK   75  A    between atoms: _188  and  _189
REMARK   76  A    between atoms: _188  and  _191
REMARK   77  A    between atoms: _191  and  _192
REMARK   78  A    between atoms: _196  and  _197
REMARK   79  A    between atoms: _202  and  _204
REMARK   80  A    between atoms: _204  and  _205
REMARK   81  A    between atoms: _204  and  _207
REMARK   82  A    between atoms: _207  and  _208
REMARK   83  A    between atoms: _213  and  _215
REMARK   84  A    between atoms: _215  and  _216
REMARK   85  A    between atoms: _215  and  _218
REMARK   86  A    between atoms: _218  and  _219
REMARK   87  A    between atoms: _225  and  _227
REMARK   88  A    between atoms: _227  and  _228
REMARK   89  A    between atoms: _227  and  _230
REMARK   90  A    between atoms: _230  and  _231
REMARK   91  A    between atoms: _234  and  _236
REMARK   92  A    between atoms: _236  and  _237
REMARK   93  A    between atoms: _236  and  _239
REMARK   94  A    between atoms: _239  and  _240
REMARK   95  A    between atoms: _245  and  _246
REMARK   96  A    between atoms: _248  and  _250
REMARK   97  A    between atoms: _250  and  _251
REMARK   98  A    between atoms: _250  and  _253
REMARK   99  A    between atoms: _256  and  _258
REMARK  100  A    between atoms: _258  and  _259
REMARK  101  A    between atoms: _258  and  _261
REMARK  102  A    between atoms: _263  and  _265
REMARK  103  A    between atoms: _265  and  _266
REMARK  104  A    between atoms: _269  and  _271
REMARK  105  A    between atoms: _271  and  _272
REMARK  106  A    between atoms: _271  and  _274
REMARK  107  A    between atoms: _277  and  _279
REMARK  108  A    between atoms: _279  and  _280
REMARK  109  A    between atoms: _279  and  _282
REMARK  110  A    between atoms: _285  and  _287
REMARK  111  A    between atoms: _287  and  _288
REMARK  112  A    between atoms: _287  and  _290
REMARK  113  A    between atoms: _290  and  _291
REMARK  114  A    between atoms: _294  and  _296
REMARK  115  A    between atoms: _296  and  _297
REMARK  116  A    between atoms: _296  and  _299
REMARK  117  A    between atoms: _299  and  _300
REMARK  118  A    between atoms: _303  and  _305
REMARK  119  A    between atoms: _305  and  _306
REMARK  120  A    between atoms: _305  and  _308
REMARK  121  A    between atoms: _311  and  _313
REMARK  122  A    between atoms: _313  and  _314
REMARK  123  A    between atoms: _313  and  _316
REMARK  124  A    between atoms: _319  and  _321
REMARK  125  A    between atoms: _321  and  _322
REMARK  126  A    between atoms: _325  and  _327
REMARK  127  A    between atoms: _327  and  _328
REMARK  128  A    between atoms: _327  and  _330
REMARK  129  A    between atoms: _330  and  _331
REMARK  130  A    between atoms: _335  and  _336
REMARK  131  A    between atoms: _341  and  _343
REMARK  132  A    between atoms: _343  and  _344
REMARK  133  A    between atoms: _343  and  _346
REMARK  134  A    between atoms: _346  and  _347
REMARK  135  A    between atoms: _350  and  _352
REMARK  136  A    between atoms: _352  and  _353
REMARK  137  A    between atoms: _356  and  _358
REMARK  138  A    between atoms: _358  and  _359
REMARK  139  A    between atoms: _358  and  _361
REMARK  140  A    between atoms: _361  and  _362
REMARK  141  A    between atoms: _367  and  _369
REMARK  142  A    between atoms: _369  and  _370
REMARK  143  A    between atoms: _372  and  _374
REMARK  144  A    between atoms: _374  and  _375
REMARK  145  A    between atoms: _374  and  _377
REMARK  146  A    between atoms: _380  and  _382
REMARK  147  A    between atoms: _382  and  _383
REMARK  148  A    between atoms: _382  and  _385
REMARK  149  A    between atoms: _385  and  _386
REMARK  150  A    between atoms: _389  and  _391
REMARK  151  A    between atoms: _391  and  _392
REMARK  152  A    between atoms: _391  and  _394
REMARK  153  A    between atoms: _394  and  _395
REMARK  154  A    between atoms: _398  and  _400
REMARK  155  A    between atoms: _400  and  _401
REMARK  156  A    between atoms: _400  and  _403
REMARK  157  A    between atoms: _403  and  _404
REMARK  158  A    between atoms: _407  and  _409
REMARK  159  A    between atoms: _409  and  _410
REMARK  160  A    between atoms: _409  and  _412
REMARK  161  A    between atoms: _412  and  _413
REMARK  162  A    between atoms: _418  and  _420
REMARK  163  A    between atoms: _420  and  _421
REMARK  164  A    between atoms: _420  and  _423
REMARK  165  A    between atoms: _423  and  _424
REMARK  166  A    between atoms: _424  and  _425
REMARK  167  A    between atoms: _430  and  _432
REMARK  168  A    between atoms: _432  and  _433
REMARK  169  A    between atoms: _432  and  _435
REMARK  170  A    between atoms: _435  and  _436
REMARK  171  A    between atoms: _436  and  _437
REMARK  172  A    between atoms: _437  and  _438
REMARK  173  A    between atoms: _447  and  _449
REMARK  174  A    between atoms: _449  and  _450
REMARK  175  A    between atoms: _449  and  _452
REMARK  176  A    between atoms: _452  and  _453
REMARK  177  A    between atoms: _453  and  _454
REMARK  178  A    between atoms: _457  and  _459
REMARK  179  A    between atoms: _459  and  _460
REMARK  180  A    between atoms: _459  and  _462
REMARK  181  A    between atoms: _462  and  _463
REMARK  182  A    between atoms: _463  and  _464
REMARK  183  A    between atoms: _464  and  _465
REMARK  184  A    between atoms: _465  and  _466
REMARK  185  A    between atoms: _470  and  _472
REMARK  186  A    between atoms: _472  and  _473
REMARK  187  A    between atoms: _475  and  _477
REMARK  188  A    between atoms: _477  and  _478
REMARK  189  A    between atoms: _481  and  _483
REMARK  190  A    between atoms: _483  and  _484
REMARK  191  A    between atoms: _483  and  _486
REMARK  192  A    between atoms: _486  and  _487
REMARK  193  A    between atoms: _487  and  _488
REMARK  194  A    between atoms: _493  and  _495
REMARK  195  A    between atoms: _495  and  _496
REMARK  196  A    between atoms: _499  and  _501
REMARK  197  A    between atoms: _501  and  _502
REMARK  198  A    between atoms: _501  and  _504
REMARK  199  A    between atoms: _504  and  _505
REMARK  200  A    between atoms: _508  and  _510
REMARK  201  A    between atoms: _510  and  _511
REMARK  202  A    between atoms: _510  and  _513
REMARK  203  A    between atoms: _516  and  _518
REMARK  204  A    between atoms: _518  and  _519
REMARK  205  A    between atoms: _522  and  _524
REMARK  206  A    between atoms: _524  and  _525
REMARK  207  A    between atoms: _528  and  _530
REMARK  208  A    between atoms: _530  and  _531
REMARK  209  A    between atoms: _530  and  _533
REMARK  210  A    between atoms: _533  and  _534
REMARK                            x       y       z     vdW  Elec       q    Type
REMARK                         _______ _______ _______ _____ _____    ______ ____
ROOT
ATOM      1  O   HOH     1      47.269   9.106  -4.947  0.00  0.00    +0.000 OA
ENDROOT
TORSDOF 0
REMARK  Name = ../refined-set-2016/2c94/2c94_pocket.pdb
REMARK  210 active torsions:
REMARK  status: ('A' for Active; 'I' for Inactive)
REMARK    1  A    between atoms: _1  and  _3
REMARK    2  A    between atoms: _3  and  _4
REMARK    3  A    between atoms: _7  and  _9
REMARK    4  A    between atoms: _9  and  _10
REMARK    5  A    between atoms: _9  and  _12
REMARK    6  A    between atoms: _12  and  _13
REMARK    7  A    between atoms: _15  and  _17
REMARK    8  A    between atoms: _17  and  _18
REMARK    9  A    between atoms: _17  and  _20
REMARK   10  A    between atoms: _20  and  _21
REMARK   11  A    between atoms: _23  and  _25
REMARK   12  A    between atoms: _25  and  _26
REMARK   13  A    between atoms: _25  and  _28
REMARK   14  A    between atoms: _28  and  _29
REMARK   15  A    between atoms: _41  and  _42
REMARK   16  A    between atoms: _41  and  _44
REMARK   17  A    between atoms: _44  and  _45
REMARK   18  A    between atoms: _50  and  _52
REMARK   19  A    between atoms: _52  and  _53
REMARK   20  A    between atoms: _52  and  _55
REMARK   21  A    between atoms: _57  and  _59
REMARK   22  A    between atoms: _59  and  _60
REMARK   23  A    between atoms: _59  and  _62
REMARK   24  A    between atoms: _65  and  _67
REMARK   25  A    between atoms: _67  and  _68
REMARK   26  A    between atoms: _67  and  _70
REMARK   27  A    between atoms: _70  and  _71
REMARK   28  A    between atoms: _74  and  _76
REMARK   29  A    between atoms: _76  and  _77
REMARK   30  A    between atoms: _79  and  _81
REMARK   31  A    between atoms: _81  and  _82
REMARK   32  A    between atoms: _85  and  _87
REMARK   33  A    between atoms: _87  and  _88
REMARK   34  A    between atoms: _87  and  _90
REMARK   35  A    between atoms: _90  and  _91
REMARK   36  A    between atoms: _94  and  _96
REMARK   37  A    between atoms: _96  and  _97
REMARK   38  A    between atoms: _96  and  _99
REMARK   39  A    between atoms: _99  and  _100
REMARK   40  A    between atoms: _100  and  _101
REMARK   41  A    between atoms: _104  and  _106
REMARK   42  A    between atoms: _106  and  _107
REMARK   43  A    between atoms: _106  and  _109
REMARK   44  A    between atoms: _109  and  _110
REMARK   45  A    between atoms: _113  and  _115
REMARK   46  A    between atoms: _115  and  _116
REMARK   47  A    between atoms: _115  and  _118
REMARK   48  A    between atoms: _118  and  _119
REMARK   49  A    between atoms: _122  and  _124
REMARK   50  A    between atoms: _124  and  _125
REMARK   51  A    between atoms: _127  and  _129
REMARK   52  A    between atoms: _129  and  _130
REMARK   53  A    between atoms: _129  and  _132
REMARK   54  A    between atoms: _135  and  _137
REMARK   55  A    between atoms: _137  and  _138
REMARK   56  A    between atoms: _137  and  _140
REMARK   57  A    between atoms: _143  and  _145
REMARK   58  A    between atoms: _145  and  _146
REMARK   59  A    between atoms: _145  and  _148
REMARK   60  A    between atoms: _148  and  _149
REMARK   61  A    between atoms: _152  and  _154
REMARK   62  A    between atoms: _154  and  _155
REMARK   63  A    between atoms: _154  and  _157
REMARK   64  A    between atoms: _157  and  _158
REMARK   65  A    between atoms: _158  and  _159
REMARK   66  A    between atoms: _159  and  _160
REMARK   67  A    between atoms: _169  and  _171
REMARK   68  A    between atoms: _171  and  _172
REMARK   69  A    between atoms: _174  and  _176
REMARK   70  A    between atoms: _176  and  _177
REMARK   71  A    between atoms: _176  and  _179
REMARK   72  A    between atoms: _179  and  _180
REMARK   73  A    between atoms: _180  and  _181
REMARK   74  A    between atoms: _186  and  _188
REMARK   75  A    between atoms: _188  and  _189
REMARK   76  A    between atoms: _188  and  _191
REMARK   77  A    between atoms: _191  and  _192
REMARK   78  A    between atoms: _196  and  _197
REMARK   79  A    between atoms: _202  and  _204
REMARK   80  A    between atoms: _204  and  _205
REMARK   81  A    between atoms: _204  and  _207
REMARK   82  A    between atoms: _207  and  _208
REMARK   83  A    between atoms: _213  and  _215
REMARK   84  A    between atoms: _215  and  _216
REMARK   85  A    between atoms: _215  and  _218
REMARK   86  A    between atoms: _218  and  _219
REMARK   87  A    between atoms: _225  and  _227
REMARK   88  A    between atoms: _227  and  _228
REMARK   89  A    between atoms: _227  and  _230
REMARK   90  A    between atoms: _230  and  _231
REMARK   91  A    between atoms: _234  and  _236
REMARK   92  A    between atoms: _236  and  _237
REMARK   93  A    between atoms: _236  and  _239
REMARK   94  A    between atoms: _239  and  _240
REMARK   95  A    between atoms: _245  and  _246
REMARK   96  A    between atoms: _248  and  _250
REMARK   97  A    between atoms: _250  and  _251
REMARK   98  A    between atoms: _250  and  _253
REMARK   99  A    between atoms: _256  and  _258
REMARK  100  A    between atoms: _258  and  _259
REMARK  101  A    between atoms: _258  and  _261
REMARK  102  A    between atoms: _263  and  _265
REMARK  103  A    between atoms: _265  and  _266
REMARK  104  A    between atoms: _269  and  _271
REMARK  105  A    between atoms: _271  and  _272
REMARK  106  A    between atoms: _271  and  _274
REMARK  107  A    between atoms: _277  and  _279
REMARK  108  A    between atoms: _279  and  _280
REMARK  109  A    between atoms: _279  and  _282
REMARK  110  A    between atoms: _285  and  _287
REMARK  111  A    between atoms: _287  and  _288
REMARK  112  A    between atoms: _287  and  _290
REMARK  113  A    between atoms: _290  and  _291
REMARK  114  A    between atoms: _294  and  _296
REMARK  115  A    between atoms: _296  and  _297
REMARK  116  A    between atoms: _296  and  _299
REMARK  117  A    between atoms: _299  and  _300
REMARK  118  A    between atoms: _303  and  _305
REMARK  119  A    between atoms: _305  and  _306
REMARK  120  A    between atoms: _305  and  _308
REMARK  121  A    between atoms: _311  and  _313
REMARK  122  A    between atoms: _313  and  _314
REMARK  123  A    between atoms: _313  and  _316
REMARK  124  A    between atoms: _319  and  _321
REMARK  125  A    between atoms: _321  and  _322
REMARK  126  A    between atoms: _325  and  _327
REMARK  127  A    between atoms: _327  and  _328
REMARK  128  A    between atoms: _327  and  _330
REMARK  129  A    between atoms: _330  and  _331
REMARK  130  A    between atoms: _335  and  _336
REMARK  131  A    between atoms: _341  and  _343
REMARK  132  A    between atoms: _343  and  _344
REMARK  133  A    between atoms: _343  and  _346
REMARK  134  A    between atoms: _346  and  _347
REMARK  135  A    between atoms: _350  and  _352
REMARK  136  A    between atoms: _352  and  _353
REMARK  137  A    between atoms: _356  and  _358
REMARK  138  A    between atoms: _358  and  _359
REMARK  139  A    between atoms: _358  and  _361
REMARK  140  A    between atoms: _361  and  _362
REMARK  141  A    between atoms: _367  and  _369
REMARK  142  A    between atoms: _369  and  _370
REMARK  143  A    between atoms: _372  and  _374
REMARK  144  A    between atoms: _374  and  _375
REMARK  145  A    between atoms: _374  and  _377
REMARK  146  A    between atoms: _380  and  _382
REMARK  147  A    between atoms: _382  and  _383
REMARK  148  A    between atoms: _382  and  _385
REMARK  149  A    between atoms: _385  and  _386
REMARK  150  A    between atoms: _389  and  _391
REMARK  151  A    between atoms: _391  and  _392
REMARK  152  A    between atoms: _391  and  _394
REMARK  153  A    between atoms: _394  and  _395
REMARK  154  A    between atoms: _398  and  _400
REMARK  155  A    between atoms: _400  and  _401
REMARK  156  A    between atoms: _400  and  _403
REMARK  157  A    between atoms: _403  and  _404
REMARK  158  A    between atoms: _407  and  _409
REMARK  159  A    between atoms: _409  and  _410
REMARK  160  A    between atoms: _409  and  _412
REMARK  161  A    between atoms: _412  and  _413
REMARK  162  A    between atoms: _418  and  _420
REMARK  163  A    between atoms: _420  and  _421
REMARK  164  A    between atoms: _420  and  _423
REMARK  165  A    between atoms: _423  and  _424
REMARK  166  A    between atoms: _424  and  _425
REMARK  167  A    between atoms: _430  and  _432
REMARK  168  A    between atoms: _432  and  _433
REMARK  169  A    between atoms: _432  and  _435
REMARK  170  A    between atoms: _435  and  _436
REMARK  171  A    between atoms: _436  and  _437
REMARK  172  A    between atoms: _437  and  _438
REMARK  173  A    between atoms: _447  and  _449
REMARK  174  A    between atoms: _449  and  _450
REMARK  175  A    between atoms: _449  and  _452
REMARK  176  A    between atoms: _452  and  _453
REMARK  177  A    between atoms: _453  and  _454
REMARK  178  A    between atoms: _457  and  _459
REMARK  179  A    between atoms: _459  and  _460
REMARK  180  A    between atoms: _459  and  _462
REMARK  181  A    between atoms: _462  and  _463
REMARK  182  A    between atoms: _463  and  _464
REMARK  183  A    between atoms: _464  and  _465
REMARK  184  A    between atoms: _465  and  _466
REMARK  185  A    between atoms: _470  and  _472
REMARK  186  A    between atoms: _472  and  _473
REMARK  187  A    between atoms: _475  and  _477
REMARK  188  A    between atoms: _477  and  _478
REMARK  189  A    between atoms: _481  and  _483
REMARK  190  A    between atoms: _483  and  _484
REMARK  191  A    between atoms: _483  and  _486
REMARK  192  A    between atoms: _486  and  _487
REMARK  193  A    between atoms: _487  and  _488
REMARK  194  A    between atoms: _493  and  _495
REMARK  195  A    between atoms: _495  and  _496
REMARK  196  A    between atoms: _499  and  _501
REMARK  197  A    between atoms: _501  and  _502
REMARK  198  A    between atoms: _501  and  _504
REMARK  199  A    between atoms: _504  and  _505
REMARK  200  A    between atoms: _508  and  _510
REMARK  201  A    between atoms: _510  and  _511
REMARK  202  A    between atoms: _510  and  _513
REMARK  203  A    between atoms: _516  and  _518
REMARK  204  A    between atoms: _518  and  _519
REMARK  205  A    between atoms: _522  and  _524
REMARK  206  A    between atoms: _524  and  _525
REMARK  207  A    between atoms: _528  and  _530
REMARK  208  A    between atoms: _530  and  _531
REMARK  209  A    between atoms: _530  and  _533
REMARK  210  A    between atoms: _533  and  _534
REMARK                            x       y       z     vdW  Elec       q    Type
REMARK                         _______ _______ _______ _____ _____    ______ ____
ROOT
ATOM      1  O   HOH     1      43.422   6.486  -3.189  0.00  0.00    +0.000 OA
ENDROOT
TORSDOF 0
REMARK  Name = ../refined-set-2016/2c94/2c94_pocket.pdb
REMARK  210 active torsions:
REMARK  status: ('A' for Active; 'I' for Inactive)
REMARK    1  A    between atoms: _1  and  _3
REMARK    2  A    between atoms: _3  and  _4
REMARK    3  A    between atoms: _7  and  _9
REMARK    4  A    between atoms: _9  and  _10
REMARK    5  A    between atoms: _9  and  _12
REMARK    6  A    between atoms: _12  and  _13
REMARK    7  A    between atoms: _15  and  _17
REMARK    8  A    between atoms: _17  and  _18
REMARK    9  A    between atoms: _17  and  _20
REMARK   10  A    between atoms: _20  and  _21
REMARK   11  A    between atoms: _23  and  _25
REMARK   12  A    between atoms: _25  and  _26
REMARK   13  A    between atoms: _25  and  _28
REMARK   14  A    between atoms: _28  and  _29
REMARK   15  A    between atoms: _41  and  _42
REMARK   16  A    between atoms: _41  and  _44
REMARK   17  A    between atoms: _44  and  _45
REMARK   18  A    between atoms: _50  and  _52
REMARK   19  A    between atoms: _52  and  _53
REMARK   20  A    between atoms: _52  and  _55
REMARK   21  A    between atoms: _57  and  _59
REMARK   22  A    between atoms: _59  and  _60
REMARK   23  A    between atoms: _59  and  _62
REMARK   24  A    between atoms: _65  and  _67
REMARK   25  A    between atoms: _67  and  _68
REMARK   26  A    between atoms: _67  and  _70
REMARK   27  A    between atoms: _70  and  _71
REMARK   28  A    between atoms: _74  and  _76
REMARK   29  A    between atoms: _76  and  _77
REMARK   30  A    between atoms: _79  and  _81
REMARK   31  A    between atoms: _81  and  _82
REMARK   32  A    between atoms: _85  and  _87
REMARK   33  A    between atoms: _87  and  _88
REMARK   34  A    between atoms: _87  and  _90
REMARK   35  A    between atoms: _90  and  _91
REMARK   36  A    between atoms: _94  and  _96
REMARK   37  A    between atoms: _96  and  _97
REMARK   38  A    between atoms: _96  and  _99
REMARK   39  A    between atoms: _99  and  _100
REMARK   40  A    between atoms: _100  and  _101
REMARK   41  A    between atoms: _104  and  _106
REMARK   42  A    between atoms: _106  and  _107
REMARK   43  A    between atoms: _106  and  _109
REMARK   44  A    between atoms: _109  and  _110
REMARK   45  A    between atoms: _113  and  _115
REMARK   46  A    between atoms: _115  and  _116
REMARK   47  A    between atoms: _115  and  _118
REMARK   48  A    between atoms: _118  and  _119
REMARK   49  A    between atoms: _122  and  _124
REMARK   50  A    between atoms: _124  and  _125
REMARK   51  A    between atoms: _127  and  _129
REMARK   52  A    between atoms: _129  and  _130
REMARK   53  A    between atoms: _129  and  _132
REMARK   54  A    between atoms: _135  and  _137
REMARK   55  A    between atoms: _137  and  _138
REMARK   56  A    between atoms: _137  and  _140
REMARK   57  A    between atoms: _143  and  _145
REMARK   58  A    between atoms: _145  and  _146
REMARK   59  A    between atoms: _145  and  _148
REMARK   60  A    between atoms: _148  and  _149
REMARK   61  A    between atoms: _152  and  _154
REMARK   62  A    between atoms: _154  and  _155
REMARK   63  A    between atoms: _154  and  _157
REMARK   64  A    between atoms: _157  and  _158
REMARK   65  A    between atoms: _158  and  _159
REMARK   66  A    between atoms: _159  and  _160
REMARK   67  A    between atoms: _169  and  _171
REMARK   68  A    between atoms: _171  and  _172
REMARK   69  A    between atoms: _174  and  _176
REMARK   70  A    between atoms: _176  and  _177
REMARK   71  A    between atoms: _176  and  _179
REMARK   72  A    between atoms: _179  and  _180
REMARK   73  A    between atoms: _180  and  _181
REMARK   74  A    between atoms: _186  and  _188
REMARK   75  A    between atoms: _188  and  _189
REMARK   76  A    between atoms: _188  and  _191
REMARK   77  A    between atoms: _191  and  _192
REMARK   78  A    between atoms: _196  and  _197
REMARK   79  A    between atoms: _202  and  _204
REMARK   80  A    between atoms: _204  and  _205
REMARK   81  A    between atoms: _204  and  _207
REMARK   82  A    between atoms: _207  and  _208
REMARK   83  A    between atoms: _213  and  _215
REMARK   84  A    between atoms: _215  and  _216
REMARK   85  A    between atoms: _215  and  _218
REMARK   86  A    between atoms: _218  and  _219
REMARK   87  A    between atoms: _225  and  _227
REMARK   88  A    between atoms: _227  and  _228
REMARK   89  A    between atoms: _227  and  _230
REMARK   90  A    between atoms: _230  and  _231
REMARK   91  A    between atoms: _234  and  _236
REMARK   92  A    between atoms: _236  and  _237
REMARK   93  A    between atoms: _236  and  _239
REMARK   94  A    between atoms: _239  and  _240
REMARK   95  A    between atoms: _245  and  _246
REMARK   96  A    between atoms: _248  and  _250
REMARK   97  A    between atoms: _250  and  _251
REMARK   98  A    between atoms: _250  and  _253
REMARK   99  A    between atoms: _256  and  _258
REMARK  100  A    between atoms: _258  and  _259
REMARK  101  A    between atoms: _258  and  _261
REMARK  102  A    between atoms: _263  and  _265
REMARK  103  A    between atoms: _265  and  _266
REMARK  104  A    between atoms: _269  and  _271
REMARK  105  A    between atoms: _271  and  _272
REMARK  106  A    between atoms: _271  and  _274
REMARK  107  A    between atoms: _277  and  _279
REMARK  108  A    between atoms: _279  and  _280
REMARK  109  A    between atoms: _279  and  _282
REMARK  110  A    between atoms: _285  and  _287
REMARK  111  A    between atoms: _287  and  _288
REMARK  112  A    between atoms: _287  and  _290
REMARK  113  A    between atoms: _290  and  _291
REMARK  114  A    between atoms: _294  and  _296
REMARK  115  A    between atoms: _296  and  _297
REMARK  116  A    between atoms: _296  and  _299
REMARK  117  A    between atoms: _299  and  _300
REMARK  118  A    between atoms: _303  and  _305
REMARK  119  A    between atoms: _305  and  _306
REMARK  120  A    between atoms: _305  and  _308
REMARK  121  A    between atoms: _311  and  _313
REMARK  122  A    between atoms: _313  and  _314
REMARK  123  A    between atoms: _313  and  _316
REMARK  124  A    between atoms: _319  and  _321
REMARK  125  A    between atoms: _321  and  _322
REMARK  126  A    between atoms: _325  and  _327
REMARK  127  A    between atoms: _327  and  _328
REMARK  128  A    between atoms: _327  and  _330
REMARK  129  A    between atoms: _330  and  _331
REMARK  130  A    between atoms: _335  and  _336
REMARK  131  A    between atoms: _341  and  _343
REMARK  132  A    between atoms: _343  and  _344
REMARK  133  A    between atoms: _343  and  _346
REMARK  134  A    between atoms: _346  and  _347
REMARK  135  A    between atoms: _350  and  _352
REMARK  136  A    between atoms: _352  and  _353
REMARK  137  A    between atoms: _356  and  _358
REMARK  138  A    between atoms: _358  and  _359
REMARK  139  A    between atoms: _358  and  _361
REMARK  140  A    between atoms: _361  and  _362
REMARK  141  A    between atoms: _367  and  _369
REMARK  142  A    between atoms: _369  and  _370
REMARK  143  A    between atoms: _372  and  _374
REMARK  144  A    between atoms: _374  and  _375
REMARK  145  A    between atoms: _374  and  _377
REMARK  146  A    between atoms: _380  and  _382
REMARK  147  A    between atoms: _382  and  _383
REMARK  148  A    between atoms: _382  and  _385
REMARK  149  A    between atoms: _385  and  _386
REMARK  150  A    between atoms: _389  and  _391
REMARK  151  A    between atoms: _391  and  _392
REMARK  152  A    between atoms: _391  and  _394
REMARK  153  A    between atoms: _394  and  _395
REMARK  154  A    between atoms: _398  and  _400
REMARK  155  A    between atoms: _400  and  _401
REMARK  156  A    between atoms: _400  and  _403
REMARK  157  A    between atoms: _403  and  _404
REMARK  158  A    between atoms: _407  and  _409
REMARK  159  A    between atoms: _409  and  _410
REMARK  160  A    between atoms: _409  and  _412
REMARK  161  A    between atoms: _412  and  _413
REMARK  162  A    between atoms: _418  and  _420
REMARK  163  A    between atoms: _420  and  _421
REMARK  164  A    between atoms: _420  and  _423
REMARK  165  A    between atoms: _423  and  _424
REMARK  166  A    between atoms: _424  and  _425
REMARK  167  A    between atoms: _430  and  _432
REMARK  168  A    between atoms: _432  and  _433
REMARK  169  A    between atoms: _432  and  _435
REMARK  170  A    between atoms: _435  and  _436
REMARK  171  A    between atoms: _436  and  _437
REMARK  172  A    between atoms: _437  and  _438
REMARK  173  A    between atoms: _447  and  _449
REMARK  174  A    between atoms: _449  and  _450
REMARK  175  A    between atoms: _449  and  _452
REMARK  176  A    between atoms: _452  and  _453
REMARK  177  A    between atoms: _453  and  _454
REMARK  178  A    between atoms: _457  and  _459
REMARK  179  A    between atoms: _459  and  _460
REMARK  180  A    between atoms: _459  and  _462
REMARK  181  A    between atoms: _462  and  _463
REMARK  182  A    between atoms: _463  and  _464
REMARK  183  A    between atoms: _464  and  _465
REMARK  184  A    between atoms: _465  and  _466
REMARK  185  A    between atoms: _470  and  _472
REMARK  186  A    between atoms: _472  and  _473
REMARK  187  A    between atoms: _475  and  _477
REMARK  188  A    between atoms: _477  and  _478
REMARK  189  A    between atoms: _481  and  _483
REMARK  190  A    between atoms: _483  and  _484
REMARK  191  A    between atoms: _483  and  _486
REMARK  192  A    between atoms: _486  and  _487
REMARK  193  A    between atoms: _487  and  _488
REMARK  194  A    between atoms: _493  and  _495
REMARK  195  A    between atoms: _495  and  _496
REMARK  196  A    between atoms: _499  and  _501
REMARK  197  A    between atoms: _501  and  _502
REMARK  198  A    between atoms: _501  and  _504
REMARK  199  A    between atoms: _504  and  _505
REMARK  200  A    between atoms: _508  and  _510
REMARK  201  A    between atoms: _510  and  _511
REMARK  202  A    between atoms: _510  and  _513
REMARK  203  A    between atoms: _516  and  _518
REMARK  204  A    between atoms: _518  and  _519
REMARK  205  A    between atoms: _522  and  _524
REMARK  206  A    between atoms: _524  and  _525
REMARK  207  A    between atoms: _528  and  _530
REMARK  208  A    between atoms: _530  and  _531
REMARK  209  A    between atoms: _530  and  _533
REMARK  210  A    between atoms: _533  and  _534
REMARK                            x       y       z     vdW  Elec       q    Type
REMARK                         _______ _______ _______ _____ _____    ______ ____
ROOT
ATOM      1  O   HOH     1      39.411   4.493   5.462  0.00  0.00    +0.000 OA
ENDROOT
TORSDOF 0
REMARK  Name = ../refined-set-2016/2c94/2c94_pocket.pdb
REMARK  210 active torsions:
REMARK  status: ('A' for Active; 'I' for Inactive)
REMARK    1  A    between atoms: _1  and  _3
REMARK    2  A    between atoms: _3  and  _4
REMARK    3  A    between atoms: _7  and  _9
REMARK    4  A    between atoms: _9  and  _10
REMARK    5  A    between atoms: _9  and  _12
REMARK    6  A    between atoms: _12  and  _13
REMARK    7  A    between atoms: _15  and  _17
REMARK    8  A    between atoms: _17  and  _18
REMARK    9  A    between atoms: _17  and  _20
REMARK   10  A    between atoms: _20  and  _21
REMARK   11  A    between atoms: _23  and  _25
REMARK   12  A    between atoms: _25  and  _26
REMARK   13  A    between atoms: _25  and  _28
REMARK   14  A    between atoms: _28  and  _29
REMARK   15  A    between atoms: _41  and  _42
REMARK   16  A    between atoms: _41  and  _44
REMARK   17  A    between atoms: _44  and  _45
REMARK   18  A    between atoms: _50  and  _52
REMARK   19  A    between atoms: _52  and  _53
REMARK   20  A    between atoms: _52  and  _55
REMARK   21  A    between atoms: _57  and  _59
REMARK   22  A    between atoms: _59  and  _60
REMARK   23  A    between atoms: _59  and  _62
REMARK   24  A    between atoms: _65  and  _67
REMARK   25  A    between atoms: _67  and  _68
REMARK   26  A    between atoms: _67  and  _70
REMARK   27  A    between atoms: _70  and  _71
REMARK   28  A    between atoms: _74  and  _76
REMARK   29  A    between atoms: _76  and  _77
REMARK   30  A    between atoms: _79  and  _81
REMARK   31  A    between atoms: _81  and  _82
REMARK   32  A    between atoms: _85  and  _87
REMARK   33  A    between atoms: _87  and  _88
REMARK   34  A    between atoms: _87  and  _90
REMARK   35  A    between atoms: _90  and  _91
REMARK   36  A    between atoms: _94  and  _96
REMARK   37  A    between atoms: _96  and  _97
REMARK   38  A    between atoms: _96  and  _99
REMARK   39  A    between atoms: _99  and  _100
REMARK   40  A    between atoms: _100  and  _101
REMARK   41  A    between atoms: _104  and  _106
REMARK   42  A    between atoms: _106  and  _107
REMARK   43  A    between atoms: _106  and  _109
REMARK   44  A    between atoms: _109  and  _110
REMARK   45  A    between atoms: _113  and  _115
REMARK   46  A    between atoms: _115  and  _116
REMARK   47  A    between atoms: _115  and  _118
REMARK   48  A    between atoms: _118  and  _119
REMARK   49  A    between atoms: _122  and  _124
REMARK   50  A    between atoms: _124  and  _125
REMARK   51  A    between atoms: _127  and  _129
REMARK   52  A    between atoms: _129  and  _130
REMARK   53  A    between atoms: _129  and  _132
REMARK   54  A    between atoms: _135  and  _137
REMARK   55  A    between atoms: _137  and  _138
REMARK   56  A    between atoms: _137  and  _140
REMARK   57  A    between atoms: _143  and  _145
REMARK   58  A    between atoms: _145  and  _146
REMARK   59  A    between atoms: _145  and  _148
REMARK   60  A    between atoms: _148  and  _149
REMARK   61  A    between atoms: _152  and  _154
REMARK   62  A    between atoms: _154  and  _155
REMARK   63  A    between atoms: _154  and  _157
REMARK   64  A    between atoms: _157  and  _158
REMARK   65  A    between atoms: _158  and  _159
REMARK   66  A    between atoms: _159  and  _160
REMARK   67  A    between atoms: _169  and  _171
REMARK   68  A    between atoms: _171  and  _172
REMARK   69  A    between atoms: _174  and  _176
REMARK   70  A    between atoms: _176  and  _177
REMARK   71  A    between atoms: _176  and  _179
REMARK   72  A    between atoms: _179  and  _180
REMARK   73  A    between atoms: _180  and  _181
REMARK   74  A    between atoms: _186  and  _188
REMARK   75  A    between atoms: _188  and  _189
REMARK   76  A    between atoms: _188  and  _191
REMARK   77  A    between atoms: _191  and  _192
REMARK   78  A    between atoms: _196  and  _197
REMARK   79  A    between atoms: _202  and  _204
REMARK   80  A    between atoms: _204  and  _205
REMARK   81  A    between atoms: _204  and  _207
REMARK   82  A    between atoms: _207  and  _208
REMARK   83  A    between atoms: _213  and  _215
REMARK   84  A    between atoms: _215  and  _216
REMARK   85  A    between atoms: _215  and  _218
REMARK   86  A    between atoms: _218  and  _219
REMARK   87  A    between atoms: _225  and  _227
REMARK   88  A    between atoms: _227  and  _228
REMARK   89  A    between atoms: _227  and  _230
REMARK   90  A    between atoms: _230  and  _231
REMARK   91  A    between atoms: _234  and  _236
REMARK   92  A    between atoms: _236  and  _237
REMARK   93  A    between atoms: _236  and  _239
REMARK   94  A    between atoms: _239  and  _240
REMARK   95  A    between atoms: _245  and  _246
REMARK   96  A    between atoms: _248  and  _250
REMARK   97  A    between atoms: _250  and  _251
REMARK   98  A    between atoms: _250  and  _253
REMARK   99  A    between atoms: _256  and  _258
REMARK  100  A    between atoms: _258  and  _259
REMARK  101  A    between atoms: _258  and  _261
REMARK  102  A    between atoms: _263  and  _265
REMARK  103  A    between atoms: _265  and  _266
REMARK  104  A    between atoms: _269  and  _271
REMARK  105  A    between atoms: _271  and  _272
REMARK  106  A    between atoms: _271  and  _274
REMARK  107  A    between atoms: _277  and  _279
REMARK  108  A    between atoms: _279  and  _280
REMARK  109  A    between atoms: _279  and  _282
REMARK  110  A    between atoms: _285  and  _287
REMARK  111  A    between atoms: _287  and  _288
REMARK  112  A    between atoms: _287  and  _290
REMARK  113  A    between atoms: _290  and  _291
REMARK  114  A    between atoms: _294  and  _296
REMARK  115  A    between atoms: _296  and  _297
REMARK  116  A    between atoms: _296  and  _299
REMARK  117  A    between atoms: _299  and  _300
REMARK  118  A    between atoms: _303  and  _305
REMARK  119  A    between atoms: _305  and  _306
REMARK  120  A    between atoms: _305  and  _308
REMARK  121  A    between atoms: _311  and  _313
REMARK  122  A    between atoms: _313  and  _314
REMARK  123  A    between atoms: _313  and  _316
REMARK  124  A    between atoms: _319  and  _321
REMARK  125  A    between atoms: _321  and  _322
REMARK  126  A    between atoms: _325  and  _327
REMARK  127  A    between atoms: _327  and  _328
REMARK  128  A    between atoms: _327  and  _330
REMARK  129  A    between atoms: _330  and  _331
REMARK  130  A    between atoms: _335  and  _336
REMARK  131  A    between atoms: _341  and  _343
REMARK  132  A    between atoms: _343  and  _344
REMARK  133  A    between atoms: _343  and  _346
REMARK  134  A    between atoms: _346  and  _347
REMARK  135  A    between atoms: _350  and  _352
REMARK  136  A    between atoms: _352  and  _353
REMARK  137  A    between atoms: _356  and  _358
REMARK  138  A    between atoms: _358  and  _359
REMARK  139  A    between atoms: _358  and  _361
REMARK  140  A    between atoms: _361  and  _362
REMARK  141  A    between atoms: _367  and  _369
REMARK  142  A    between atoms: _369  and  _370
REMARK  143  A    between atoms: _372  and  _374
REMARK  144  A    between atoms: _374  and  _375
REMARK  145  A    between atoms: _374  and  _377
REMARK  146  A    between atoms: _380  and  _382
REMARK  147  A    between atoms: _382  and  _383
REMARK  148  A    between atoms: _382  and  _385
REMARK  149  A    between atoms: _385  and  _386
REMARK  150  A    between atoms: _389  and  _391
REMARK  151  A    between atoms: _391  and  _392
REMARK  152  A    between atoms: _391  and  _394
REMARK  153  A    between atoms: _394  and  _395
REMARK  154  A    between atoms: _398  and  _400
REMARK  155  A    between atoms: _400  and  _401
REMARK  156  A    between atoms: _400  and  _403
REMARK  157  A    between atoms: _403  and  _404
REMARK  158  A    between atoms: _407  and  _409
REMARK  159  A    between atoms: _409  and  _410
REMARK  160  A    between atoms: _409  and  _412
REMARK  161  A    between atoms: _412  and  _413
REMARK  162  A    between atoms: _418  and  _420
REMARK  163  A    between atoms: _420  and  _421
REMARK  164  A    between atoms: _420  and  _423
REMARK  165  A    between atoms: _423  and  _424
REMARK  166  A    between atoms: _424  and  _425
REMARK  167  A    between atoms: _430  and  _432
REMARK  168  A    between atoms: _432  and  _433
REMARK  169  A    between atoms: _432  and  _435
REMARK  170  A    between atoms: _435  and  _436
REMARK  171  A    between atoms: _436  and  _437
REMARK  172  A    between atoms: _437  and  _438
REMARK  173  A    between atoms: _447  and  _449
REMARK  174  A    between atoms: _449  and  _450
REMARK  175  A    between atoms: _449  and  _452
REMARK  176  A    between atoms: _452  and  _453
REMARK  177  A    between atoms: _453  and  _454
REMARK  178  A    between atoms: _457  and  _459
REMARK  179  A    between atoms: _459  and  _460
REMARK  180  A    between atoms: _459  and  _462
REMARK  181  A    between atoms: _462  and  _463
REMARK  182  A    between atoms: _463  and  _464
REMARK  183  A    between atoms: _464  and  _465
REMARK  184  A    between atoms: _465  and  _466
REMARK  185  A    between atoms: _470  and  _472
REMARK  186  A    between atoms: _472  and  _473
REMARK  187  A    between atoms: _475  and  _477
REMARK  188  A    between atoms: _477  and  _478
REMARK  189  A    between atoms: _481  and  _483
REMARK  190  A    between atoms: _483  and  _484
REMARK  191  A    between atoms: _483  and  _486
REMARK  192  A    between atoms: _486  and  _487
REMARK  193  A    between atoms: _487  and  _488
REMARK  194  A    between atoms: _493  and  _495
REMARK  195  A    between atoms: _495  and  _496
REMARK  196  A    between atoms: _499  and  _501
REMARK  197  A    between atoms: _501  and  _502
REMARK  198  A    between atoms: _501  and  _504
REMARK  199  A    between atoms: _504  and  _505
REMARK  200  A    between atoms: _508  and  _510
REMARK  201  A    between atoms: _510  and  _511
REMARK  202  A    between atoms: _510  and  _513
REMARK  203  A    between atoms: _516  and  _518
REMARK  204  A    between atoms: _518  and  _519
REMARK  205  A    between atoms: _522  and  _524
REMARK  206  A    between atoms: _524  and  _525
REMARK  207  A    between atoms: _528  and  _530
REMARK  208  A    between atoms: _530  and  _531
REMARK  209  A    between atoms: _530  and  _533
REMARK  210  A    between atoms: _533  and  _534
REMARK                            x       y       z     vdW  Elec       q    Type
REMARK                         _______ _______ _______ _____ _____    ______ ____
ROOT
ATOM      1  O   HOH     1      34.387   1.845   6.313  0.00  0.00    +0.000 OA
ENDROOT
TORSDOF 0
REMARK  Name = ../refined-set-2016/2c94/2c94_pocket.pdb
REMARK  210 active torsions:
REMARK  status: ('A' for Active; 'I' for Inactive)
REMARK    1  A    between atoms: _1  and  _3
REMARK    2  A    between atoms: _3  and  _4
REMARK    3  A    between atoms: _7  and  _9
REMARK    4  A    between atoms: _9  and  _10
REMARK    5  A    between atoms: _9  and  _12
REMARK    6  A    between atoms: _12  and  _13
REMARK    7  A    between atoms: _15  and  _17
REMARK    8  A    between atoms: _17  and  _18
REMARK    9  A    between atoms: _17  and  _20
REMARK   10  A    between atoms: _20  and  _21
REMARK   11  A    between atoms: _23  and  _25
REMARK   12  A    between atoms: _25  and  _26
REMARK   13  A    between atoms: _25  and  _28
REMARK   14  A    between atoms: _28  and  _29
REMARK   15  A    between atoms: _41  and  _42
REMARK   16  A    between atoms: _41  and  _44
REMARK   17  A    between atoms: _44  and  _45
REMARK   18  A    between atoms: _50  and  _52
REMARK   19  A    between atoms: _52  and  _53
REMARK   20  A    between atoms: _52  and  _55
REMARK   21  A    between atoms: _57  and  _59
REMARK   22  A    between atoms: _59  and  _60
REMARK   23  A    between atoms: _59  and  _62
REMARK   24  A    between atoms: _65  and  _67
REMARK   25  A    between atoms: _67  and  _68
REMARK   26  A    between atoms: _67  and  _70
REMARK   27  A    between atoms: _70  and  _71
REMARK   28  A    between atoms: _74  and  _76
REMARK   29  A    between atoms: _76  and  _77
REMARK   30  A    between atoms: _79  and  _81
REMARK   31  A    between atoms: _81  and  _82
REMARK   32  A    between atoms: _85  and  _87
REMARK   33  A    between atoms: _87  and  _88
REMARK   34  A    between atoms: _87  and  _90
REMARK   35  A    between atoms: _90  and  _91
REMARK   36  A    between atoms: _94  and  _96
REMARK   37  A    between atoms: _96  and  _97
REMARK   38  A    between atoms: _96  and  _99
REMARK   39  A    between atoms: _99  and  _100
REMARK   40  A    between atoms: _100  and  _101
REMARK   41  A    between atoms: _104  and  _106
REMARK   42  A    between atoms: _106  and  _107
REMARK   43  A    between atoms: _106  and  _109
REMARK   44  A    between atoms: _109  and  _110
REMARK   45  A    between atoms: _113  and  _115
REMARK   46  A    between atoms: _115  and  _116
REMARK   47  A    between atoms: _115  and  _118
REMARK   48  A    between atoms: _118  and  _119
REMARK   49  A    between atoms: _122  and  _124
REMARK   50  A    between atoms: _124  and  _125
REMARK   51  A    between atoms: _127  and  _129
REMARK   52  A    between atoms: _129  and  _130
REMARK   53  A    between atoms: _129  and  _132
REMARK   54  A    between atoms: _135  and  _137
REMARK   55  A    between atoms: _137  and  _138
REMARK   56  A    between atoms: _137  and  _140
REMARK   57  A    between atoms: _143  and  _145
REMARK   58  A    between atoms: _145  and  _146
REMARK   59  A    between atoms: _145  and  _148
REMARK   60  A    between atoms: _148  and  _149
REMARK   61  A    between atoms: _152  and  _154
REMARK   62  A    between atoms: _154  and  _155
REMARK   63  A    between atoms: _154  and  _157
REMARK   64  A    between atoms: _157  and  _158
REMARK   65  A    between atoms: _158  and  _159
REMARK   66  A    between atoms: _159  and  _160
REMARK   67  A    between atoms: _169  and  _171
REMARK   68  A    between atoms: _171  and  _172
REMARK   69  A    between atoms: _174  and  _176
REMARK   70  A    between atoms: _176  and  _177
REMARK   71  A    between atoms: _176  and  _179
REMARK   72  A    between atoms: _179  and  _180
REMARK   73  A    between atoms: _180  and  _181
REMARK   74  A    between atoms: _186  and  _188
REMARK   75  A    between atoms: _188  and  _189
REMARK   76  A    between atoms: _188  and  _191
REMARK   77  A    between atoms: _191  and  _192
REMARK   78  A    between atoms: _196  and  _197
REMARK   79  A    between atoms: _202  and  _204
REMARK   80  A    between atoms: _204  and  _205
REMARK   81  A    between atoms: _204  and  _207
REMARK   82  A    between atoms: _207  and  _208
REMARK   83  A    between atoms: _213  and  _215
REMARK   84  A    between atoms: _215  and  _216
REMARK   85  A    between atoms: _215  and  _218
REMARK   86  A    between atoms: _218  and  _219
REMARK   87  A    between atoms: _225  and  _227
REMARK   88  A    between atoms: _227  and  _228
REMARK   89  A    between atoms: _227  and  _230
REMARK   90  A    between atoms: _230  and  _231
REMARK   91  A    between atoms: _234  and  _236
REMARK   92  A    between atoms: _236  and  _237
REMARK   93  A    between atoms: _236  and  _239
REMARK   94  A    between atoms: _239  and  _240
REMARK   95  A    between atoms: _245  and  _246
REMARK   96  A    between atoms: _248  and  _250
REMARK   97  A    between atoms: _250  and  _251
REMARK   98  A    between atoms: _250  and  _253
REMARK   99  A    between atoms: _256  and  _258
REMARK  100  A    between atoms: _258  and  _259
REMARK  101  A    between atoms: _258  and  _261
REMARK  102  A    between atoms: _263  and  _265
REMARK  103  A    between atoms: _265  and  _266
REMARK  104  A    between atoms: _269  and  _271
REMARK  105  A    between atoms: _271  and  _272
REMARK  106  A    between atoms: _271  and  _274
REMARK  107  A    between atoms: _277  and  _279
REMARK  108  A    between atoms: _279  and  _280
REMARK  109  A    between atoms: _279  and  _282
REMARK  110  A    between atoms: _285  and  _287
REMARK  111  A    between atoms: _287  and  _288
REMARK  112  A    between atoms: _287  and  _290
REMARK  113  A    between atoms: _290  and  _291
REMARK  114  A    between atoms: _294  and  _296
REMARK  115  A    between atoms: _296  and  _297
REMARK  116  A    between atoms: _296  and  _299
REMARK  117  A    between atoms: _299  and  _300
REMARK  118  A    between atoms: _303  and  _305
REMARK  119  A    between atoms: _305  and  _306
REMARK  120  A    between atoms: _305  and  _308
REMARK  121  A    between atoms: _311  and  _313
REMARK  122  A    between atoms: _313  and  _314
REMARK  123  A    between atoms: _313  and  _316
REMARK  124  A    between atoms: _319  and  _321
REMARK  125  A    between atoms: _321  and  _322
REMARK  126  A    between atoms: _325  and  _327
REMARK  127  A    between atoms: _327  and  _328
REMARK  128  A    between atoms: _327  and  _330
REMARK  129  A    between atoms: _330  and  _331
REMARK  130  A    between atoms: _335  and  _336
REMARK  131  A    between atoms: _341  and  _343
REMARK  132  A    between atoms: _343  and  _344
REMARK  133  A    between atoms: _343  and  _346
REMARK  134  A    between atoms: _346  and  _347
REMARK  135  A    between atoms: _350  and  _352
REMARK  136  A    between atoms: _352  and  _353
REMARK  137  A    between atoms: _356  and  _358
REMARK  138  A    between atoms: _358  and  _359
REMARK  139  A    between atoms: _358  and  _361
REMARK  140  A    between atoms: _361  and  _362
REMARK  141  A    between atoms: _367  and  _369
REMARK  142  A    between atoms: _369  and  _370
REMARK  143  A    between atoms: _372  and  _374
REMARK  144  A    between atoms: _374  and  _375
REMARK  145  A    between atoms: _374  and  _377
REMARK  146  A    between atoms: _380  and  _382
REMARK  147  A    between atoms: _382  and  _383
REMARK  148  A    between atoms: _382  and  _385
REMARK  149  A    between atoms: _385  and  _386
REMARK  150  A    between atoms: _389  and  _391
REMARK  151  A    between atoms: _391  and  _392
REMARK  152  A    between atoms: _391  and  _394
REMARK  153  A    between atoms: _394  and  _395
REMARK  154  A    between atoms: _398  and  _400
REMARK  155  A    between atoms: _400  and  _401
REMARK  156  A    between atoms: _400  and  _403
REMARK  157  A    between atoms: _403  and  _404
REMARK  158  A    between atoms: _407  and  _409
REMARK  159  A    between atoms: _409  and  _410
REMARK  160  A    between atoms: _409  and  _412
REMARK  161  A    between atoms: _412  and  _413
REMARK  162  A    between atoms: _418  and  _420
REMARK  163  A    between atoms: _420  and  _421
REMARK  164  A    between atoms: _420  and  _423
REMARK  165  A    between atoms: _423  and  _424
REMARK  166  A    between atoms: _424  and  _425
REMARK  167  A    between atoms: _430  and  _432
REMARK  168  A    between atoms: _432  and  _433
REMARK  169  A    between atoms: _432  and  _435
REMARK  170  A    between atoms: _435  and  _436
REMARK  171  A    between atoms: _436  and  _437
REMARK  172  A    between atoms: _437  and  _438
REMARK  173  A    between atoms: _447  and  _449
REMARK  174  A    between atoms: _449  and  _450
REMARK  175  A    between atoms: _449  and  _452
REMARK  176  A    between atoms: _452  and  _453
REMARK  177  A    between atoms: _453  and  _454
REMARK  178  A    between atoms: _457  and  _459
REMARK  179  A    between atoms: _459  and  _460
REMARK  180  A    between atoms: _459  and  _462
REMARK  181  A    between atoms: _462  and  _463
REMARK  182  A    between atoms: _463  and  _464
REMARK  183  A    between atoms: _464  and  _465
REMARK  184  A    between atoms: _465  and  _466
REMARK  185  A    between atoms: _470  and  _472
REMARK  186  A    between atoms: _472  and  _473
REMARK  187  A    between atoms: _475  and  _477
REMARK  188  A    between atoms: _477  and  _478
REMARK  189  A    between atoms: _481  and  _483
REMARK  190  A    between atoms: _483  and  _484
REMARK  191  A    between atoms: _483  and  _486
REMARK  192  A    between atoms: _486  and  _487
REMARK  193  A    between atoms: _487  and  _488
REMARK  194  A    between atoms: _493  and  _495
REMARK  195  A    between atoms: _495  and  _496
REMARK  196  A    between atoms: _499  and  _501
REMARK  197  A    between atoms: _501  and  _502
REMARK  198  A    between atoms: _501  and  _504
REMARK  199  A    between atoms: _504  and  _505
REMARK  200  A    between atoms: _508  and  _510
REMARK  201  A    between atoms: _510  and  _511
REMARK  202  A    between atoms: _510  and  _513
REMARK  203  A    between atoms: _516  and  _518
REMARK  204  A    between atoms: _518  and  _519
REMARK  205  A    between atoms: _522  and  _524
REMARK  206  A    between atoms: _524  and  _525
REMARK  207  A    between atoms: _528  and  _530
REMARK  208  A    between atoms: _530  and  _531
REMARK  209  A    between atoms: _530  and  _533
REMARK  210  A    between atoms: _533  and  _534
REMARK                            x       y       z     vdW  Elec       q    Type
REMARK                         _______ _______ _______ _____ _____    ______ ____
ROOT
ATOM      1  O   HOH     1      32.244  -1.206  11.440  0.00  0.00    +0.000 OA
ENDROOT
TORSDOF 0
