REMARK  Name = ../refined-set-2016/3dri/3dri_pocket.pdb
REMARK  142 active torsions:
REMARK  status: ('A' for Active; 'I' for Inactive)
REMARK    1  A    between atoms: _1  and  _3
REMARK    2  A    between atoms: _3  and  _4
REMARK    3  A    between atoms: _3  and  _6
REMARK    4  A    between atoms: _6  and  _7
REMARK    5  A    between atoms: _10  and  _12
REMARK    6  A    between atoms: _12  and  _13
REMARK    7  A    between atoms: _12  and  _15
REMARK    8  A    between atoms: _15  and  _16
REMARK    9  A    between atoms: _16  and  _17
REMARK   10  A    between atoms: _17  and  _18
REMARK   11  A    between atoms: _27  and  _29
REMARK   12  A    between atoms: _29  and  _30
REMARK   13  A    between atoms: _29  and  _32
REMARK   14  A    between atoms: _32  and  _33
REMARK   15  A    between atoms: _43  and  _45
REMARK   16  A    between atoms: _45  and  _46
REMARK   17  A    between atoms: _45  and  _48
REMARK   18  A    between atoms: _48  and  _49
REMARK   19  A    between atoms: _52  and  _54
REMARK   20  A    between atoms: _54  and  _55
REMARK   21  A    between atoms: _54  and  _57
REMARK   22  A    between atoms: _57  and  _58
REMARK   23  A    between atoms: _61  and  _63
REMARK   24  A    between atoms: _63  and  _64
REMARK   25  A    between atoms: _63  and  _66
REMARK   26  A    between atoms: _66  and  _67
REMARK   27  A    between atoms: _69  and  _71
REMARK   28  A    between atoms: _71  and  _72
REMARK   29  A    between atoms: _71  and  _74
REMARK   30  A    between atoms: _74  and  _75
REMARK   31  A    between atoms: _78  and  _80
REMARK   32  A    between atoms: _80  and  _81
REMARK   33  A    between atoms: _83  and  _85
REMARK   34  A    between atoms: _85  and  _86
REMARK   35  A    between atoms: _85  and  _88
REMARK   36  A    between atoms: _88  and  _89
REMARK   37  A    between atoms: _94  and  _96
REMARK   38  A    between atoms: _96  and  _97
REMARK   39  A    between atoms: _99  and  _101
REMARK   40  A    between atoms: _101  and  _102
REMARK   41  A    between atoms: _101  and  _104
REMARK   42  A    between atoms: _104  and  _105
REMARK   43  A    between atoms: _105  and  _106
REMARK   44  A    between atoms: _108  and  _110
REMARK   45  A    between atoms: _110  and  _111
REMARK   46  A    between atoms: _110  and  _113
REMARK   47  A    between atoms: _113  and  _114
REMARK   48  A    between atoms: _119  and  _120
REMARK   49  A    between atoms: _122  and  _124
REMARK   50  A    between atoms: _124  and  _125
REMARK   51  A    between atoms: _124  and  _127
REMARK   52  A    between atoms: _127  and  _128
REMARK   53  A    between atoms: _131  and  _133
REMARK   54  A    between atoms: _133  and  _134
REMARK   55  A    between atoms: _133  and  _136
REMARK   56  A    between atoms: _136  and  _137
REMARK   57  A    between atoms: _139  and  _141
REMARK   58  A    between atoms: _141  and  _142
REMARK   59  A    between atoms: _141  and  _144
REMARK   60  A    between atoms: _144  and  _145
REMARK   61  A    between atoms: _148  and  _150
REMARK   62  A    between atoms: _150  and  _151
REMARK   63  A    between atoms: _150  and  _153
REMARK   64  A    between atoms: _153  and  _154
REMARK   65  A    between atoms: _154  and  _155
REMARK   66  A    between atoms: _155  and  _156
REMARK   67  A    between atoms: _165  and  _167
REMARK   68  A    between atoms: _167  and  _168
REMARK   69  A    between atoms: _167  and  _170
REMARK   70  A    between atoms: _170  and  _171
REMARK   71  A    between atoms: _177  and  _179
REMARK   72  A    between atoms: _179  and  _180
REMARK   73  A    between atoms: _179  and  _182
REMARK   74  A    between atoms: _182  and  _183
REMARK   75  A    between atoms: _193  and  _195
REMARK   76  A    between atoms: _195  and  _196
REMARK   77  A    between atoms: _195  and  _198
REMARK   78  A    between atoms: _201  and  _203
REMARK   79  A    between atoms: _203  and  _204
REMARK   80  A    between atoms: _203  and  _206
REMARK   81  A    between atoms: _206  and  _207
REMARK   82  A    between atoms: _210  and  _212
REMARK   83  A    between atoms: _212  and  _213
REMARK   84  A    between atoms: _215  and  _217
REMARK   85  A    between atoms: _217  and  _218
REMARK   86  A    between atoms: _217  and  _220
REMARK   87  A    between atoms: _220  and  _221
REMARK   88  A    between atoms: _223  and  _225
REMARK   89  A    between atoms: _225  and  _226
REMARK   90  A    between atoms: _225  and  _228
REMARK   91  A    between atoms: _228  and  _229
REMARK   92  A    between atoms: _239  and  _241
REMARK   93  A    between atoms: _241  and  _242
REMARK   94  A    between atoms: _241  and  _244
REMARK   95  A    between atoms: _244  and  _245
REMARK   96  A    between atoms: _247  and  _249
REMARK   97  A    between atoms: _249  and  _250
REMARK   98  A    between atoms: _249  and  _252
REMARK   99  A    between atoms: _252  and  _253
REMARK  100  A    between atoms: _256  and  _258
REMARK  101  A    between atoms: _258  and  _259
REMARK  102  A    between atoms: _262  and  _264
REMARK  103  A    between atoms: _264  and  _265
REMARK  104  A    between atoms: _264  and  _267
REMARK  105  A    between atoms: _267  and  _268
REMARK  106  A    between atoms: _270  and  _272
REMARK  107  A    between atoms: _272  and  _273
REMARK  108  A    between atoms: _272  and  _275
REMARK  109  A    between atoms: _275  and  _276
REMARK  110  A    between atoms: _276  and  _277
REMARK  111  A    between atoms: _281  and  _282
REMARK  112  A    between atoms: _287  and  _289
REMARK  113  A    between atoms: _289  and  _290
REMARK  114  A    between atoms: _289  and  _292
REMARK  115  A    between atoms: _292  and  _293
REMARK  116  A    between atoms: _295  and  _297
REMARK  117  A    between atoms: _297  and  _298
REMARK  118  A    between atoms: _297  and  _300
REMARK  119  A    between atoms: _300  and  _301
REMARK  120  A    between atoms: _301  and  _302
REMARK  121  A    between atoms: _307  and  _309
REMARK  122  A    between atoms: _309  and  _310
REMARK  123  A    between atoms: _309  and  _312
REMARK  124  A    between atoms: _312  and  _313
REMARK  125  A    between atoms: _316  and  _318
REMARK  126  A    between atoms: _318  and  _319
REMARK  127  A    between atoms: _318  and  _321
REMARK  128  A    between atoms: _321  and  _322
REMARK  129  A    between atoms: _325  and  _327
REMARK  130  A    between atoms: _327  and  _328
REMARK  131  A    between atoms: _327  and  _330
REMARK  132  A    between atoms: _330  and  _331
REMARK  133  A    between atoms: _336  and  _337
REMARK  134  A    between atoms: _339  and  _341
REMARK  135  A    between atoms: _341  and  _342
REMARK  136  A    between atoms: _341  and  _344
REMARK  137  A    between atoms: _344  and  _345
REMARK  138  A    between atoms: _351  and  _353
REMARK  139  A    between atoms: _353  and  _354
REMARK  140  A    between atoms: _353  and  _356
REMARK  141  A    between atoms: _356  and  _357
REMARK  142  A    between atoms: _357  and  _358
REMARK                            x       y       z     vdW  Elec       q    Type
REMARK                         _______ _______ _______ _____ _____    ______ ____
ROOT
ATOM      1  CA  TRP A   3      -7.613  17.025  -9.529  0.00  0.00    +0.153 C 
ENDROOT
BRANCH   1   4
ATOM      2  C   ARG A   2      -6.943  15.354  -7.895  0.00  0.00    +0.241 C 
ATOM      3  O   ARG A   2      -5.768  15.721  -7.987  0.00  0.00    -0.273 OA
ATOM      4  N   TRP A   3      -7.901  15.875  -8.664  0.00  0.00    -0.297 N 
ATOM      5  H   TRP A   3      -8.856  15.464  -8.650  0.00  0.00    +0.150 HD
BRANCH   2   6
ATOM      6  CA  ARG A   2      -7.343  14.323  -6.823  0.00  0.00    +0.149 C 
BRANCH   6   9
ATOM      7  C   ASP A   1      -9.644  14.354  -6.006  0.00  0.00    +0.239 C 
ATOM      8  O   ASP A   1      -9.441  15.337  -5.309  0.00  0.00    -0.274 OA
ATOM      9  N   ARG A   2      -8.738  13.875  -6.858  0.00  0.00    -0.297 N 
ATOM     10  H   ARG A   2      -9.027  13.168  -7.563  0.00  0.00    +0.150 HD
BRANCH   7  11
ATOM     11  CA  ASP A   1     -10.996  13.641  -5.938  0.00  0.00    +0.156 C 
BRANCH  11  12
ATOM     12  N   ASP A   1     -11.005  12.413  -6.734  0.00  0.00    -0.238 NA
ATOM     13  H   ASP A   1     -10.551  11.559  -6.352  0.00  0.00    +0.142 HD
ENDBRANCH  11  12
BRANCH  11  14
ATOM     14  CB  ASP A   1     -11.344  13.318  -4.486  0.00  0.00    +0.140 C 
BRANCH  14  15
ATOM     15  CG  ASP A   1     -12.773  12.861  -4.326  0.00  0.00    +0.367 C 
ATOM     16  OD2 ASP A   1     -13.034  12.077  -3.403  0.00  0.00    -0.246 OA
ATOM     17  OD1 ASP A   1     -13.642  13.279  -5.125  0.00  0.00    -0.246 OA
ENDBRANCH  14  15
ENDBRANCH  11  14
ENDBRANCH   7  11
ENDBRANCH   6   9
BRANCH   6  18
ATOM     18  CB  ARG A   2      -6.416  13.099  -6.841  0.00  0.00    +0.033 C 
BRANCH  18  19
ATOM     19  CG  ARG A   2      -6.506  12.292  -5.543  0.00  0.00    +0.045 C 
BRANCH  19  20
ATOM     20  CD  ARG A   2      -5.355  11.331  -5.375  0.00  0.00    +0.174 C 
BRANCH  20  21
ATOM     21  NE  ARG A   2      -5.414  10.623  -4.096  0.00  0.00    -0.265 N 
ATOM     22  CZ  ARG A   2      -4.906  11.072  -2.947  0.00  0.00    +0.342 C 
ATOM     23  NH2 ARG A   2      -5.015  10.332  -1.848  0.00  0.00    -0.292 N 
ATOM     24 HH21 ARG A   2      -4.621  10.675  -0.949  0.00  0.00    +0.255 HD
ATOM     25 HH22 ARG A   2      -5.494   9.410  -1.888  0.00  0.00    +0.255 HD
ATOM     26  NH1 ARG A   2      -4.262  12.239  -2.878  0.00  0.00    -0.292 N 
ATOM     27 HH11 ARG A   2      -3.875  12.567  -1.970  0.00  0.00    +0.255 HD
ATOM     28 HH12 ARG A   2      -4.147  12.821  -3.732  0.00  0.00    +0.255 HD
ATOM     29  HE  ARG A   2      -5.889   9.698  -4.081  0.00  0.00    +0.259 HD
ENDBRANCH  20  21
ENDBRANCH  19  20
ENDBRANCH  18  19
ENDBRANCH   6  18
ENDBRANCH   2   6
ENDBRANCH   1   4
BRANCH   1  30
ATOM     30  C   TRP A   3      -7.131  18.202  -8.664  0.00  0.00    +0.241 C 
ATOM     31  O   TRP A   3      -7.683  18.457  -7.583  0.00  0.00    -0.273 OA
ATOM     32  N   THR A   4      -6.075  18.878  -9.123  0.00  0.00    -0.295 N 
ATOM     33  H   THR A   4      -5.555  18.499  -9.940  0.00  0.00    +0.150 HD
BRANCH  32  34
ATOM     34  CA  THR A   4      -5.621  20.131  -8.520  0.00  0.00    +0.176 C 
BRANCH  34  35
ATOM     35  C   THR A   4      -5.455  21.195  -9.603  0.00  0.00    +0.243 C 
ATOM     36  N   ASP A   5      -5.489  22.451  -9.171  0.00  0.00    -0.296 N 
ATOM     37  H   ASP A   5      -5.732  22.625  -8.175  0.00  0.00    +0.150 HD
ATOM     38  O   THR A   4      -5.321  20.884 -10.793  0.00  0.00    -0.273 OA
BRANCH  36  39
ATOM     39  CA  ASP A   5      -5.201  23.599 -10.027  0.00  0.00    +0.160 C 
BRANCH  39  40
ATOM     40  C   ASP A   5      -3.832  23.493 -10.694  0.00  0.00    +0.241 C 
ATOM     41  N   SER A   6      -2.879  22.896  -9.984  0.00  0.00    -0.295 N 
ATOM     42  H   SER A   6      -3.106  22.517  -9.043  0.00  0.00    +0.150 HD
ATOM     43  O   ASP A   5      -3.639  23.958 -11.817  0.00  0.00    -0.273 OA
BRANCH  41  44
ATOM     44  CA  SER A   6      -1.517  22.763 -10.503  0.00  0.00    +0.178 C 
BRANCH  44  45
ATOM     45  C   SER A   6      -1.479  22.040 -11.831  0.00  0.00    +0.243 C 
ATOM     46  N   LEU A   7      -2.404  21.106 -12.037  0.00  0.00    -0.298 N 
ATOM     47  H   LEU A   7      -3.097  20.896 -11.290  0.00  0.00    +0.150 HD
ATOM     48  O   SER A   6      -0.641  22.343 -12.674  0.00  0.00    -0.273 OA
BRANCH  46  49
ATOM     49  CA  LEU A   7      -2.458  20.375 -13.295  0.00  0.00    +0.137 C 
BRANCH  49  50
ATOM     50  C   LEU A   7      -2.899  21.236 -14.503  0.00  0.00    +0.227 C 
ATOM     51  O   LEU A   7      -2.606  20.892 -15.642  0.00  0.00    -0.286 OA
ENDBRANCH  49  50
BRANCH  49  52
ATOM     52  CB  LEU A   7      -3.334  19.129 -13.148  0.00  0.00    +0.028 C 
BRANCH  52  53
ATOM     53  CG  LEU A   7      -2.822  18.082 -12.158  0.00  0.00    +0.002 C 
ATOM     54  CD2 LEU A   7      -3.848  16.948 -12.040  0.00  0.00    +0.000 C 
ATOM     55  CD1 LEU A   7      -1.458  17.540 -12.558  0.00  0.00    +0.000 C 
ENDBRANCH  52  53
ENDBRANCH  49  52
ENDBRANCH  46  49
ENDBRANCH  44  45
BRANCH  44  56
ATOM     56  CB  SER A   6      -0.625  22.072  -9.480  0.00  0.00    +0.166 C 
BRANCH  56  57
ATOM     57  OG  SER A   6      -0.475  22.926  -8.346  0.00  0.00    -0.380 OA
ATOM     58  H   SER A   6      -1.364  23.105  -7.949  0.00  0.00    +0.211 HD
ENDBRANCH  56  57
ENDBRANCH  44  56
ENDBRANCH  41  44
ENDBRANCH  39  40
BRANCH  39  59
ATOM     59  CB  ASP A   5      -5.234  24.890  -9.202  0.00  0.00    +0.143 C 
BRANCH  59  60
ATOM     60  CG  ASP A   5      -6.623  25.454  -9.047  0.00  0.00    +0.367 C 
ATOM     61  OD2 ASP A   5      -6.745  26.503  -8.365  0.00  0.00    -0.246 OA
ATOM     62  OD1 ASP A   5      -7.592  24.874  -9.604  0.00  0.00    -0.246 OA
ENDBRANCH  59  60
ENDBRANCH  39  59
ENDBRANCH  36  39
ENDBRANCH  34  35
BRANCH  34  63
ATOM     63  CB  THR A   4      -4.283  19.980  -7.764  0.00  0.00    +0.137 C 
ATOM     64  CG2 THR A   4      -4.359  18.860  -6.729  0.00  0.00    +0.034 C 
BRANCH  63  65
ATOM     65  OG1 THR A   4      -3.236  19.700  -8.705  0.00  0.00    -0.382 OA
ATOM     66  HG1 THR A   4      -2.377  19.603  -8.222  0.00  0.00    +0.210 HD
ENDBRANCH  63  65
ENDBRANCH  34  63
ENDBRANCH  32  34
ENDBRANCH   1  30
BRANCH   1  67
ATOM     67  CB  TRP A   3      -8.831  17.445 -10.357  0.00  0.00    +0.057 C 
BRANCH  67  68
ATOM     68  CG  TRP A   3      -8.568  18.699 -11.130  0.00  0.00    -0.002 A 
ATOM     69  CD1 TRP A   3      -8.838  19.970 -10.733  0.00  0.00    +0.068 A 
ATOM     70  NE1 TRP A   3      -8.417  20.864 -11.687  0.00  0.00    -0.352 N 
ATOM     71  HE1 TRP A   3      -8.507  21.898 -11.627  0.00  0.00    +0.166 HD
ATOM     72  CE2 TRP A   3      -7.859  20.173 -12.729  0.00  0.00    +0.056 A 
ATOM     73  CZ2 TRP A   3      -7.292  20.632 -13.916  0.00  0.00    +0.017 A 
ATOM     74  CH2 TRP A   3      -6.790  19.693 -14.781  0.00  0.00    +0.001 A 
ATOM     75  CZ3 TRP A   3      -6.843  18.330 -14.483  0.00  0.00    +0.000 A 
ATOM     76  CE3 TRP A   3      -7.404  17.877 -13.307  0.00  0.00    +0.001 A 
ATOM     77  CD2 TRP A   3      -7.915  18.804 -12.402  0.00  0.00    +0.013 A 
ENDBRANCH  67  68
ENDBRANCH   1  67
TORSDOF 30
REMARK  Name = ../refined-set-2016/3dri/3dri_pocket.pdb
REMARK  142 active torsions:
REMARK  status: ('A' for Active; 'I' for Inactive)
REMARK    1  A    between atoms: _1  and  _3
REMARK    2  A    between atoms: _3  and  _4
REMARK    3  A    between atoms: _3  and  _6
REMARK    4  A    between atoms: _6  and  _7
REMARK    5  A    between atoms: _10  and  _12
REMARK    6  A    between atoms: _12  and  _13
REMARK    7  A    between atoms: _12  and  _15
REMARK    8  A    between atoms: _15  and  _16
REMARK    9  A    between atoms: _16  and  _17
REMARK   10  A    between atoms: _17  and  _18
REMARK   11  A    between atoms: _27  and  _29
REMARK   12  A    between atoms: _29  and  _30
REMARK   13  A    between atoms: _29  and  _32
REMARK   14  A    between atoms: _32  and  _33
REMARK   15  A    between atoms: _43  and  _45
REMARK   16  A    between atoms: _45  and  _46
REMARK   17  A    between atoms: _45  and  _48
REMARK   18  A    between atoms: _48  and  _49
REMARK   19  A    between atoms: _52  and  _54
REMARK   20  A    between atoms: _54  and  _55
REMARK   21  A    between atoms: _54  and  _57
REMARK   22  A    between atoms: _57  and  _58
REMARK   23  A    between atoms: _61  and  _63
REMARK   24  A    between atoms: _63  and  _64
REMARK   25  A    between atoms: _63  and  _66
REMARK   26  A    between atoms: _66  and  _67
REMARK   27  A    between atoms: _69  and  _71
REMARK   28  A    between atoms: _71  and  _72
REMARK   29  A    between atoms: _71  and  _74
REMARK   30  A    between atoms: _74  and  _75
REMARK   31  A    between atoms: _78  and  _80
REMARK   32  A    between atoms: _80  and  _81
REMARK   33  A    between atoms: _83  and  _85
REMARK   34  A    between atoms: _85  and  _86
REMARK   35  A    between atoms: _85  and  _88
REMARK   36  A    between atoms: _88  and  _89
REMARK   37  A    between atoms: _94  and  _96
REMARK   38  A    between atoms: _96  and  _97
REMARK   39  A    between atoms: _99  and  _101
REMARK   40  A    between atoms: _101  and  _102
REMARK   41  A    between atoms: _101  and  _104
REMARK   42  A    between atoms: _104  and  _105
REMARK   43  A    between atoms: _105  and  _106
REMARK   44  A    between atoms: _108  and  _110
REMARK   45  A    between atoms: _110  and  _111
REMARK   46  A    between atoms: _110  and  _113
REMARK   47  A    between atoms: _113  and  _114
REMARK   48  A    between atoms: _119  and  _120
REMARK   49  A    between atoms: _122  and  _124
REMARK   50  A    between atoms: _124  and  _125
REMARK   51  A    between atoms: _124  and  _127
REMARK   52  A    between atoms: _127  and  _128
REMARK   53  A    between atoms: _131  and  _133
REMARK   54  A    between atoms: _133  and  _134
REMARK   55  A    between atoms: _133  and  _136
REMARK   56  A    between atoms: _136  and  _137
REMARK   57  A    between atoms: _139  and  _141
REMARK   58  A    between atoms: _141  and  _142
REMARK   59  A    between atoms: _141  and  _144
REMARK   60  A    between atoms: _144  and  _145
REMARK   61  A    between atoms: _148  and  _150
REMARK   62  A    between atoms: _150  and  _151
REMARK   63  A    between atoms: _150  and  _153
REMARK   64  A    between atoms: _153  and  _154
REMARK   65  A    between atoms: _154  and  _155
REMARK   66  A    between atoms: _155  and  _156
REMARK   67  A    between atoms: _165  and  _167
REMARK   68  A    between atoms: _167  and  _168
REMARK   69  A    between atoms: _167  and  _170
REMARK   70  A    between atoms: _170  and  _171
REMARK   71  A    between atoms: _177  and  _179
REMARK   72  A    between atoms: _179  and  _180
REMARK   73  A    between atoms: _179  and  _182
REMARK   74  A    between atoms: _182  and  _183
REMARK   75  A    between atoms: _193  and  _195
REMARK   76  A    between atoms: _195  and  _196
REMARK   77  A    between atoms: _195  and  _198
REMARK   78  A    between atoms: _201  and  _203
REMARK   79  A    between atoms: _203  and  _204
REMARK   80  A    between atoms: _203  and  _206
REMARK   81  A    between atoms: _206  and  _207
REMARK   82  A    between atoms: _210  and  _212
REMARK   83  A    between atoms: _212  and  _213
REMARK   84  A    between atoms: _215  and  _217
REMARK   85  A    between atoms: _217  and  _218
REMARK   86  A    between atoms: _217  and  _220
REMARK   87  A    between atoms: _220  and  _221
REMARK   88  A    between atoms: _223  and  _225
REMARK   89  A    between atoms: _225  and  _226
REMARK   90  A    between atoms: _225  and  _228
REMARK   91  A    between atoms: _228  and  _229
REMARK   92  A    between atoms: _239  and  _241
REMARK   93  A    between atoms: _241  and  _242
REMARK   94  A    between atoms: _241  and  _244
REMARK   95  A    between atoms: _244  and  _245
REMARK   96  A    between atoms: _247  and  _249
REMARK   97  A    between atoms: _249  and  _250
REMARK   98  A    between atoms: _249  and  _252
REMARK   99  A    between atoms: _252  and  _253
REMARK  100  A    between atoms: _256  and  _258
REMARK  101  A    between atoms: _258  and  _259
REMARK  102  A    between atoms: _262  and  _264
REMARK  103  A    between atoms: _264  and  _265
REMARK  104  A    between atoms: _264  and  _267
REMARK  105  A    between atoms: _267  and  _268
REMARK  106  A    between atoms: _270  and  _272
REMARK  107  A    between atoms: _272  and  _273
REMARK  108  A    between atoms: _272  and  _275
REMARK  109  A    between atoms: _275  and  _276
REMARK  110  A    between atoms: _276  and  _277
REMARK  111  A    between atoms: _281  and  _282
REMARK  112  A    between atoms: _287  and  _289
REMARK  113  A    between atoms: _289  and  _290
REMARK  114  A    between atoms: _289  and  _292
REMARK  115  A    between atoms: _292  and  _293
REMARK  116  A    between atoms: _295  and  _297
REMARK  117  A    between atoms: _297  and  _298
REMARK  118  A    between atoms: _297  and  _300
REMARK  119  A    between atoms: _300  and  _301
REMARK  120  A    between atoms: _301  and  _302
REMARK  121  A    between atoms: _307  and  _309
REMARK  122  A    between atoms: _309  and  _310
REMARK  123  A    between atoms: _309  and  _312
REMARK  124  A    between atoms: _312  and  _313
REMARK  125  A    between atoms: _316  and  _318
REMARK  126  A    between atoms: _318  and  _319
REMARK  127  A    between atoms: _318  and  _321
REMARK  128  A    between atoms: _321  and  _322
REMARK  129  A    between atoms: _325  and  _327
REMARK  130  A    between atoms: _327  and  _328
REMARK  131  A    between atoms: _327  and  _330
REMARK  132  A    between atoms: _330  and  _331
REMARK  133  A    between atoms: _336  and  _337
REMARK  134  A    between atoms: _339  and  _341
REMARK  135  A    between atoms: _341  and  _342
REMARK  136  A    between atoms: _341  and  _344
REMARK  137  A    between atoms: _344  and  _345
REMARK  138  A    between atoms: _351  and  _353
REMARK  139  A    between atoms: _353  and  _354
REMARK  140  A    between atoms: _353  and  _356
REMARK  141  A    between atoms: _356  and  _357
REMARK  142  A    between atoms: _357  and  _358
REMARK                            x       y       z     vdW  Elec       q    Type
REMARK                         _______ _______ _______ _____ _____    ______ ____
ROOT
ATOM      1  CA  ASN A   2       5.217  18.744  -6.445  0.00  0.00    +0.158 C 
ENDROOT
BRANCH   1   4
ATOM      2  C   GLY A   1       4.744  16.883  -4.921  0.00  0.00    +0.240 C 
ATOM      3  O   GLY A   1       3.875  17.514  -4.353  0.00  0.00    -0.274 OA
ATOM      4  N   ASN A   2       5.402  17.352  -5.979  0.00  0.00    -0.297 N 
ATOM      5  H   ASN A   2       6.059  16.727  -6.488  0.00  0.00    +0.150 HD
BRANCH   2   6
ATOM      6  CA  GLY A   1       5.064  15.483  -4.453  0.00  0.00    +0.169 C 
BRANCH   6   7
ATOM      7  N   GLY A   1       6.254  14.906  -5.075  0.00  0.00    -0.236 NA
ATOM      8  H   GLY A   1       6.131  14.285  -5.900  0.00  0.00    +0.142 HD
ENDBRANCH   6   7
ENDBRANCH   2   6
ENDBRANCH   1   4
BRANCH   1   9
ATOM      9  C   ASN A   2       3.835  19.047  -7.031  0.00  0.00    +0.241 C 
ATOM     10  O   ASN A   2       3.345  20.184  -6.938  0.00  0.00    -0.273 OA
ATOM     11  N   GLY A   3       3.207  18.035  -7.616  0.00  0.00    -0.296 N 
ATOM     12  H   GLY A   3       3.703  17.127  -7.724  0.00  0.00    +0.150 HD
BRANCH  11  13
ATOM     13  CA  GLY A   3       1.843  18.159  -8.111  0.00  0.00    +0.163 C 
BRANCH  13  14
ATOM     14  C   GLY A   3       1.689  18.745  -9.522  0.00  0.00    +0.229 C 
ATOM     15  O   GLY A   3       0.594  18.699 -10.075  0.00  0.00    -0.286 OA
ENDBRANCH  13  14
ENDBRANCH  11  13
ENDBRANCH   1   9
BRANCH   1  16
ATOM     16  CB  ASN A   2       6.333  19.186  -7.402  0.00  0.00    +0.114 C 
BRANCH  16  17
ATOM     17  CG  ASN A   2       6.323  18.454  -8.698  0.00  0.00    +0.222 C 
ATOM     18  ND2 ASN A   2       7.268  17.540  -8.862  0.00  0.00    -0.329 N 
ATOM     19 HD21 ASN A   2       7.931  17.333  -8.088  0.00  0.00    +0.145 HD
ATOM     20 HD22 ASN A   2       7.347  17.030  -9.765  0.00  0.00    +0.145 HD
ATOM     21  OD1 ASN A   2       5.514  18.739  -9.578  0.00  0.00    -0.275 OA
ENDBRANCH  16  17
ENDBRANCH   1  16
TORSDOF 8
REMARK  Name = ../refined-set-2016/3dri/3dri_pocket.pdb
REMARK  142 active torsions:
REMARK  status: ('A' for Active; 'I' for Inactive)
REMARK    1  A    between atoms: _1  and  _3
REMARK    2  A    between atoms: _3  and  _4
REMARK    3  A    between atoms: _3  and  _6
REMARK    4  A    between atoms: _6  and  _7
REMARK    5  A    between atoms: _10  and  _12
REMARK    6  A    between atoms: _12  and  _13
REMARK    7  A    between atoms: _12  and  _15
REMARK    8  A    between atoms: _15  and  _16
REMARK    9  A    between atoms: _16  and  _17
REMARK   10  A    between atoms: _17  and  _18
REMARK   11  A    between atoms: _27  and  _29
REMARK   12  A    between atoms: _29  and  _30
REMARK   13  A    between atoms: _29  and  _32
REMARK   14  A    between atoms: _32  and  _33
REMARK   15  A    between atoms: _43  and  _45
REMARK   16  A    between atoms: _45  and  _46
REMARK   17  A    between atoms: _45  and  _48
REMARK   18  A    between atoms: _48  and  _49
REMARK   19  A    between atoms: _52  and  _54
REMARK   20  A    between atoms: _54  and  _55
REMARK   21  A    between atoms: _54  and  _57
REMARK   22  A    between atoms: _57  and  _58
REMARK   23  A    between atoms: _61  and  _63
REMARK   24  A    between atoms: _63  and  _64
REMARK   25  A    between atoms: _63  and  _66
REMARK   26  A    between atoms: _66  and  _67
REMARK   27  A    between atoms: _69  and  _71
REMARK   28  A    between atoms: _71  and  _72
REMARK   29  A    between atoms: _71  and  _74
REMARK   30  A    between atoms: _74  and  _75
REMARK   31  A    between atoms: _78  and  _80
REMARK   32  A    between atoms: _80  and  _81
REMARK   33  A    between atoms: _83  and  _85
REMARK   34  A    between atoms: _85  and  _86
REMARK   35  A    between atoms: _85  and  _88
REMARK   36  A    between atoms: _88  and  _89
REMARK   37  A    between atoms: _94  and  _96
REMARK   38  A    between atoms: _96  and  _97
REMARK   39  A    between atoms: _99  and  _101
REMARK   40  A    between atoms: _101  and  _102
REMARK   41  A    between atoms: _101  and  _104
REMARK   42  A    between atoms: _104  and  _105
REMARK   43  A    between atoms: _105  and  _106
REMARK   44  A    between atoms: _108  and  _110
REMARK   45  A    between atoms: _110  and  _111
REMARK   46  A    between atoms: _110  and  _113
REMARK   47  A    between atoms: _113  and  _114
REMARK   48  A    between atoms: _119  and  _120
REMARK   49  A    between atoms: _122  and  _124
REMARK   50  A    between atoms: _124  and  _125
REMARK   51  A    between atoms: _124  and  _127
REMARK   52  A    between atoms: _127  and  _128
REMARK   53  A    between atoms: _131  and  _133
REMARK   54  A    between atoms: _133  and  _134
REMARK   55  A    between atoms: _133  and  _136
REMARK   56  A    between atoms: _136  and  _137
REMARK   57  A    between atoms: _139  and  _141
REMARK   58  A    between atoms: _141  and  _142
REMARK   59  A    between atoms: _141  and  _144
REMARK   60  A    between atoms: _144  and  _145
REMARK   61  A    between atoms: _148  and  _150
REMARK   62  A    between atoms: _150  and  _151
REMARK   63  A    between atoms: _150  and  _153
REMARK   64  A    between atoms: _153  and  _154
REMARK   65  A    between atoms: _154  and  _155
REMARK   66  A    between atoms: _155  and  _156
REMARK   67  A    between atoms: _165  and  _167
REMARK   68  A    between atoms: _167  and  _168
REMARK   69  A    between atoms: _167  and  _170
REMARK   70  A    between atoms: _170  and  _171
REMARK   71  A    between atoms: _177  and  _179
REMARK   72  A    between atoms: _179  and  _180
REMARK   73  A    between atoms: _179  and  _182
REMARK   74  A    between atoms: _182  and  _183
REMARK   75  A    between atoms: _193  and  _195
REMARK   76  A    between atoms: _195  and  _196
REMARK   77  A    between atoms: _195  and  _198
REMARK   78  A    between atoms: _201  and  _203
REMARK   79  A    between atoms: _203  and  _204
REMARK   80  A    between atoms: _203  and  _206
REMARK   81  A    between atoms: _206  and  _207
REMARK   82  A    between atoms: _210  and  _212
REMARK   83  A    between atoms: _212  and  _213
REMARK   84  A    between atoms: _215  and  _217
REMARK   85  A    between atoms: _217  and  _218
REMARK   86  A    between atoms: _217  and  _220
REMARK   87  A    between atoms: _220  and  _221
REMARK   88  A    between atoms: _223  and  _225
REMARK   89  A    between atoms: _225  and  _226
REMARK   90  A    between atoms: _225  and  _228
REMARK   91  A    between atoms: _228  and  _229
REMARK   92  A    between atoms: _239  and  _241
REMARK   93  A    between atoms: _241  and  _242
REMARK   94  A    between atoms: _241  and  _244
REMARK   95  A    between atoms: _244  and  _245
REMARK   96  A    between atoms: _247  and  _249
REMARK   97  A    between atoms: _249  and  _250
REMARK   98  A    between atoms: _249  and  _252
REMARK   99  A    between atoms: _252  and  _253
REMARK  100  A    between atoms: _256  and  _258
REMARK  101  A    between atoms: _258  and  _259
REMARK  102  A    between atoms: _262  and  _264
REMARK  103  A    between atoms: _264  and  _265
REMARK  104  A    between atoms: _264  and  _267
REMARK  105  A    between atoms: _267  and  _268
REMARK  106  A    between atoms: _270  and  _272
REMARK  107  A    between atoms: _272  and  _273
REMARK  108  A    between atoms: _272  and  _275
REMARK  109  A    between atoms: _275  and  _276
REMARK  110  A    between atoms: _276  and  _277
REMARK  111  A    between atoms: _281  and  _282
REMARK  112  A    between atoms: _287  and  _289
REMARK  113  A    between atoms: _289  and  _290
REMARK  114  A    between atoms: _289  and  _292
REMARK  115  A    between atoms: _292  and  _293
REMARK  116  A    between atoms: _295  and  _297
REMARK  117  A    between atoms: _297  and  _298
REMARK  118  A    between atoms: _297  and  _300
REMARK  119  A    between atoms: _300  and  _301
REMARK  120  A    between atoms: _301  and  _302
REMARK  121  A    between atoms: _307  and  _309
REMARK  122  A    between atoms: _309  and  _310
REMARK  123  A    between atoms: _309  and  _312
REMARK  124  A    between atoms: _312  and  _313
REMARK  125  A    between atoms: _316  and  _318
REMARK  126  A    between atoms: _318  and  _319
REMARK  127  A    between atoms: _318  and  _321
REMARK  128  A    between atoms: _321  and  _322
REMARK  129  A    between atoms: _325  and  _327
REMARK  130  A    between atoms: _327  and  _328
REMARK  131  A    between atoms: _327  and  _330
REMARK  132  A    between atoms: _330  and  _331
REMARK  133  A    between atoms: _336  and  _337
REMARK  134  A    between atoms: _339  and  _341
REMARK  135  A    between atoms: _341  and  _342
REMARK  136  A    between atoms: _341  and  _344
REMARK  137  A    between atoms: _344  and  _345
REMARK  138  A    between atoms: _351  and  _353
REMARK  139  A    between atoms: _353  and  _354
REMARK  140  A    between atoms: _353  and  _356
REMARK  141  A    between atoms: _356  and  _357
REMARK  142  A    between atoms: _357  and  _358
REMARK                            x       y       z     vdW  Elec       q    Type
REMARK                         _______ _______ _______ _____ _____    ______ ____
ROOT
ATOM      1  C   TYR A   2       5.471  19.380  10.496  0.00  0.00    +0.241 C 
ATOM      2  O   TYR A   2       6.654  19.549  10.791  0.00  0.00    -0.273 OA
ATOM      3  N   ILE A   3       4.517  20.292  10.678  0.00  0.00    -0.297 N 
ATOM      4  H   ILE A   3       3.566  20.091  10.307  0.00  0.00    +0.150 HD
ENDROOT
BRANCH   3   5
ATOM      5  CA  ILE A   3       4.733  21.548  11.364  0.00  0.00    +0.149 C 
BRANCH   5   6
ATOM      6  C   ILE A   3       3.459  21.921  12.117  0.00  0.00    +0.241 C 
ATOM      7  N   SER A   4       3.630  22.290  13.377  0.00  0.00    -0.295 N 
ATOM      8  H   SER A   4       4.551  22.143  13.836  0.00  0.00    +0.150 HD
ATOM      9  O   ILE A   3       2.341  21.820  11.581  0.00  0.00    -0.273 OA
BRANCH   7  10
ATOM     10  CA  SER A   4       2.535  22.903  14.129  0.00  0.00    +0.178 C 
BRANCH  10  11
ATOM     11  C   SER A   4       2.928  24.337  14.422  0.00  0.00    +0.243 C 
ATOM     12  O   SER A   4       4.112  24.667  14.549  0.00  0.00    -0.273 OA
ATOM     13  N   LEU A   5       1.937  25.213  14.502  0.00  0.00    -0.298 N 
ATOM     14  H   LEU A   5       0.952  24.884  14.450  0.00  0.00    +0.150 HD
BRANCH  13  15
ATOM     15  CA  LEU A   5       2.219  26.634  14.662  0.00  0.00    +0.137 C 
BRANCH  15  16
ATOM     16  C   LEU A   5       1.055  27.362  15.299  0.00  0.00    +0.227 C 
ATOM     17  O   LEU A   5      -0.084  26.909  15.239  0.00  0.00    -0.286 OA
ENDBRANCH  15  16
BRANCH  15  18
ATOM     18  CB  LEU A   5       2.573  27.294  13.313  0.00  0.00    +0.028 C 
BRANCH  18  19
ATOM     19  CG  LEU A   5       1.440  27.340  12.261  0.00  0.00    +0.002 C 
ATOM     20  CD2 LEU A   5       1.419  26.035  11.480  0.00  0.00    +0.000 C 
ATOM     21  CD1 LEU A   5       1.556  28.523  11.280  0.00  0.00    +0.000 C 
ENDBRANCH  18  19
ENDBRANCH  15  18
ENDBRANCH  13  15
ENDBRANCH  10  11
BRANCH  10  22
ATOM     22  CB  SER A   4       2.233  22.135  15.419  0.00  0.00    +0.166 C 
BRANCH  22  23
ATOM     23  OG  SER A   4       3.230  22.363  16.390  0.00  0.00    -0.380 OA
ATOM     24  H   SER A   4       3.011  21.856  17.212  0.00  0.00    +0.211 HD
ENDBRANCH  22  23
ENDBRANCH  10  22
ENDBRANCH   7  10
ENDBRANCH   5   6
BRANCH   5  25
ATOM     25  CB  ILE A   3       5.164  22.674  10.394  0.00  0.00    +0.027 C 
ATOM     26  CG2 ILE A   3       4.126  22.898   9.279  0.00  0.00    +0.002 C 
BRANCH  25  27
ATOM     27  CG1 ILE A   3       5.403  23.984  11.165  0.00  0.00    +0.002 C 
ATOM     28  CD1 ILE A   3       6.556  23.949  12.141  0.00  0.00    +0.000 C 
ENDBRANCH  25  27
ENDBRANCH   5  25
ENDBRANCH   3   5
BRANCH   1  29
ATOM     29  CA  TYR A   2       5.009  18.045   9.941  0.00  0.00    +0.153 C 
BRANCH  29  31
ATOM     30  C   MET A   1       5.775  16.755   7.940  0.00  0.00    +0.238 C 
ATOM     31  N   TYR A   2       6.024  17.499   9.016  0.00  0.00    -0.297 N 
ATOM     32  H   TYR A   2       7.020  17.715   9.224  0.00  0.00    +0.150 HD
ATOM     33  O   MET A   1       4.648  16.575   7.452  0.00  0.00    -0.274 OA
BRANCH  30  34
ATOM     34  CA  MET A   1       6.997  16.011   7.384  0.00  0.00    +0.146 C 
BRANCH  34  35
ATOM     35  N   MET A   1       7.280  14.951   8.344  0.00  0.00    -0.238 NA
ATOM     36  H   MET A   1       6.762  14.054   8.250  0.00  0.00    +0.142 HD
ENDBRANCH  34  35
BRANCH  34  37
ATOM     37  CB  MET A   1       6.723  15.419   5.978  0.00  0.00    +0.038 C 
BRANCH  37  38
ATOM     38  CG  MET A   1       8.012  14.896   5.228  0.00  0.00    +0.060 C 
BRANCH  38  39
ATOM     39  SD  MET A   1       7.718  14.796   3.430  0.00  0.00    -0.139 S 
ATOM     40  CE  MET A   1       7.500  13.014   3.324  0.00  0.00    +0.069 C 
ENDBRANCH  38  39
ENDBRANCH  37  38
ENDBRANCH  34  37
ENDBRANCH  30  34
ENDBRANCH  29  31
BRANCH  29  41
ATOM     41  CB  TYR A   2       4.823  17.086  11.116  0.00  0.00    +0.055 C 
BRANCH  41  42
ATOM     42  CG  TYR A   2       3.943  17.568  12.249  0.00  0.00    -0.020 A 
ATOM     43  CD2 TYR A   2       4.459  18.343  13.288  0.00  0.00    -0.001 A 
ATOM     44  CE2 TYR A   2       3.645  18.770  14.345  0.00  0.00    +0.036 A 
ATOM     45  CZ  TYR A   2       2.304  18.398  14.368  0.00  0.00    +0.134 A 
ATOM     46  CE1 TYR A   2       1.773  17.613  13.353  0.00  0.00    +0.036 A 
ATOM     47  CD1 TYR A   2       2.584  17.212  12.302  0.00  0.00    -0.001 A 
BRANCH  45  48
ATOM     48  OH  TYR A   2       1.503  18.782  15.407  0.00  0.00    -0.506 OA
ATOM     49  HH  TYR A   2       0.588  18.434  15.263  0.00  0.00    +0.292 HD
ENDBRANCH  45  48
ENDBRANCH  41  42
ENDBRANCH  29  41
ENDBRANCH   1  29
TORSDOF 22
REMARK  Name = ../refined-set-2016/3dri/3dri_pocket.pdb
REMARK  142 active torsions:
REMARK  status: ('A' for Active; 'I' for Inactive)
REMARK    1  A    between atoms: _1  and  _3
REMARK    2  A    between atoms: _3  and  _4
REMARK    3  A    between atoms: _3  and  _6
REMARK    4  A    between atoms: _6  and  _7
REMARK    5  A    between atoms: _10  and  _12
REMARK    6  A    between atoms: _12  and  _13
REMARK    7  A    between atoms: _12  and  _15
REMARK    8  A    between atoms: _15  and  _16
REMARK    9  A    between atoms: _16  and  _17
REMARK   10  A    between atoms: _17  and  _18
REMARK   11  A    between atoms: _27  and  _29
REMARK   12  A    between atoms: _29  and  _30
REMARK   13  A    between atoms: _29  and  _32
REMARK   14  A    between atoms: _32  and  _33
REMARK   15  A    between atoms: _43  and  _45
REMARK   16  A    between atoms: _45  and  _46
REMARK   17  A    between atoms: _45  and  _48
REMARK   18  A    between atoms: _48  and  _49
REMARK   19  A    between atoms: _52  and  _54
REMARK   20  A    between atoms: _54  and  _55
REMARK   21  A    between atoms: _54  and  _57
REMARK   22  A    between atoms: _57  and  _58
REMARK   23  A    between atoms: _61  and  _63
REMARK   24  A    between atoms: _63  and  _64
REMARK   25  A    between atoms: _63  and  _66
REMARK   26  A    between atoms: _66  and  _67
REMARK   27  A    between atoms: _69  and  _71
REMARK   28  A    between atoms: _71  and  _72
REMARK   29  A    between atoms: _71  and  _74
REMARK   30  A    between atoms: _74  and  _75
REMARK   31  A    between atoms: _78  and  _80
REMARK   32  A    between atoms: _80  and  _81
REMARK   33  A    between atoms: _83  and  _85
REMARK   34  A    between atoms: _85  and  _86
REMARK   35  A    between atoms: _85  and  _88
REMARK   36  A    between atoms: _88  and  _89
REMARK   37  A    between atoms: _94  and  _96
REMARK   38  A    between atoms: _96  and  _97
REMARK   39  A    between atoms: _99  and  _101
REMARK   40  A    between atoms: _101  and  _102
REMARK   41  A    between atoms: _101  and  _104
REMARK   42  A    between atoms: _104  and  _105
REMARK   43  A    between atoms: _105  and  _106
REMARK   44  A    between atoms: _108  and  _110
REMARK   45  A    between atoms: _110  and  _111
REMARK   46  A    between atoms: _110  and  _113
REMARK   47  A    between atoms: _113  and  _114
REMARK   48  A    between atoms: _119  and  _120
REMARK   49  A    between atoms: _122  and  _124
REMARK   50  A    between atoms: _124  and  _125
REMARK   51  A    between atoms: _124  and  _127
REMARK   52  A    between atoms: _127  and  _128
REMARK   53  A    between atoms: _131  and  _133
REMARK   54  A    between atoms: _133  and  _134
REMARK   55  A    between atoms: _133  and  _136
REMARK   56  A    between atoms: _136  and  _137
REMARK   57  A    between atoms: _139  and  _141
REMARK   58  A    between atoms: _141  and  _142
REMARK   59  A    between atoms: _141  and  _144
REMARK   60  A    between atoms: _144  and  _145
REMARK   61  A    between atoms: _148  and  _150
REMARK   62  A    between atoms: _150  and  _151
REMARK   63  A    between atoms: _150  and  _153
REMARK   64  A    between atoms: _153  and  _154
REMARK   65  A    between atoms: _154  and  _155
REMARK   66  A    between atoms: _155  and  _156
REMARK   67  A    between atoms: _165  and  _167
REMARK   68  A    between atoms: _167  and  _168
REMARK   69  A    between atoms: _167  and  _170
REMARK   70  A    between atoms: _170  and  _171
REMARK   71  A    between atoms: _177  and  _179
REMARK   72  A    between atoms: _179  and  _180
REMARK   73  A    between atoms: _179  and  _182
REMARK   74  A    between atoms: _182  and  _183
REMARK   75  A    between atoms: _193  and  _195
REMARK   76  A    between atoms: _195  and  _196
REMARK   77  A    between atoms: _195  and  _198
REMARK   78  A    between atoms: _201  and  _203
REMARK   79  A    between atoms: _203  and  _204
REMARK   80  A    between atoms: _203  and  _206
REMARK   81  A    between atoms: _206  and  _207
REMARK   82  A    between atoms: _210  and  _212
REMARK   83  A    between atoms: _212  and  _213
REMARK   84  A    between atoms: _215  and  _217
REMARK   85  A    between atoms: _217  and  _218
REMARK   86  A    between atoms: _217  and  _220
REMARK   87  A    between atoms: _220  and  _221
REMARK   88  A    between atoms: _223  and  _225
REMARK   89  A    between atoms: _225  and  _226
REMARK   90  A    between atoms: _225  and  _228
REMARK   91  A    between atoms: _228  and  _229
REMARK   92  A    between atoms: _239  and  _241
REMARK   93  A    between atoms: _241  and  _242
REMARK   94  A    between atoms: _241  and  _244
REMARK   95  A    between atoms: _244  and  _245
REMARK   96  A    between atoms: _247  and  _249
REMARK   97  A    between atoms: _249  and  _250
REMARK   98  A    between atoms: _249  and  _252
REMARK   99  A    between atoms: _252  and  _253
REMARK  100  A    between atoms: _256  and  _258
REMARK  101  A    between atoms: _258  and  _259
REMARK  102  A    between atoms: _262  and  _264
REMARK  103  A    between atoms: _264  and  _265
REMARK  104  A    between atoms: _264  and  _267
REMARK  105  A    between atoms: _267  and  _268
REMARK  106  A    between atoms: _270  and  _272
REMARK  107  A    between atoms: _272  and  _273
REMARK  108  A    between atoms: _272  and  _275
REMARK  109  A    between atoms: _275  and  _276
REMARK  110  A    between atoms: _276  and  _277
REMARK  111  A    between atoms: _281  and  _282
REMARK  112  A    between atoms: _287  and  _289
REMARK  113  A    between atoms: _289  and  _290
REMARK  114  A    between atoms: _289  and  _292
REMARK  115  A    between atoms: _292  and  _293
REMARK  116  A    between atoms: _295  and  _297
REMARK  117  A    between atoms: _297  and  _298
REMARK  118  A    between atoms: _297  and  _300
REMARK  119  A    between atoms: _300  and  _301
REMARK  120  A    between atoms: _301  and  _302
REMARK  121  A    between atoms: _307  and  _309
REMARK  122  A    between atoms: _309  and  _310
REMARK  123  A    between atoms: _309  and  _312
REMARK  124  A    between atoms: _312  and  _313
REMARK  125  A    between atoms: _316  and  _318
REMARK  126  A    between atoms: _318  and  _319
REMARK  127  A    between atoms: _318  and  _321
REMARK  128  A    between atoms: _321  and  _322
REMARK  129  A    between atoms: _325  and  _327
REMARK  130  A    between atoms: _327  and  _328
REMARK  131  A    between atoms: _327  and  _330
REMARK  132  A    between atoms: _330  and  _331
REMARK  133  A    between atoms: _336  and  _337
REMARK  134  A    between atoms: _339  and  _341
REMARK  135  A    between atoms: _341  and  _342
REMARK  136  A    between atoms: _341  and  _344
REMARK  137  A    between atoms: _344  and  _345
REMARK  138  A    between atoms: _351  and  _353
REMARK  139  A    between atoms: _353  and  _354
REMARK  140  A    between atoms: _353  and  _356
REMARK  141  A    between atoms: _356  and  _357
REMARK  142  A    between atoms: _357  and  _358
REMARK                            x       y       z     vdW  Elec       q    Type
REMARK                         _______ _______ _______ _____ _____    ______ ____
ROOT
ATOM      1  NE  ARG A   1      -5.458  22.371  16.499  0.00  0.00    -0.265 N 
ATOM      2  HE  ARG A   1      -4.712  22.410  17.223  0.00  0.00    +0.259 HD
ATOM      3  CZ  ARG A   1      -5.112  21.904  15.302  0.00  0.00    +0.342 C 
ATOM      4  NH2 ARG A   1      -3.869  21.474  15.132  0.00  0.00    -0.292 N 
ATOM      5 HH21 ARG A   1      -3.194  21.507  15.923  0.00  0.00    +0.255 HD
ATOM      6 HH22 ARG A   1      -3.569  21.103  14.208  0.00  0.00    +0.255 HD
ATOM      7  NH1 ARG A   1      -5.948  21.928  14.275  0.00  0.00    -0.292 N 
ATOM      8 HH11 ARG A   1      -6.904  22.319  14.392  0.00  0.00    +0.255 HD
ATOM      9 HH12 ARG A   1      -5.648  21.555  13.352  0.00  0.00    +0.255 HD
ENDROOT
BRANCH   1  10
ATOM     10  CD  ARG A   1      -6.781  22.832  16.890  0.00  0.00    +0.174 C 
BRANCH  10  11
ATOM     11  CG  ARG A   1      -7.049  22.193  18.276  0.00  0.00    +0.045 C 
BRANCH  11  12
ATOM     12  CB  ARG A   1      -8.372  22.526  18.803  0.00  0.00    +0.029 C 
BRANCH  12  13
ATOM     13  CA  ARG A   1      -8.396  22.632  20.314  0.00  0.00    +0.133 C 
BRANCH  13  14
ATOM     14  N   ARG A   1      -7.574  23.749  20.725  0.00  0.00    -0.239 NA
ATOM     15  H   ARG A   1      -6.539  23.691  20.638  0.00  0.00    +0.142 HD
ENDBRANCH  13  14
BRANCH  13  16
ATOM     16  C   ARG A   1      -8.052  21.281  20.942  0.00  0.00    +0.224 C 
ATOM     17  O   ARG A   1      -6.964  21.046  21.474  0.00  0.00    -0.287 OA
ENDBRANCH  13  16
ENDBRANCH  12  13
ENDBRANCH  11  12
ENDBRANCH  10  11
ENDBRANCH   1  10
TORSDOF 6
REMARK  Name = ../refined-set-2016/3dri/3dri_pocket.pdb
REMARK  142 active torsions:
REMARK  status: ('A' for Active; 'I' for Inactive)
REMARK    1  A    between atoms: _1  and  _3
REMARK    2  A    between atoms: _3  and  _4
REMARK    3  A    between atoms: _3  and  _6
REMARK    4  A    between atoms: _6  and  _7
REMARK    5  A    between atoms: _10  and  _12
REMARK    6  A    between atoms: _12  and  _13
REMARK    7  A    between atoms: _12  and  _15
REMARK    8  A    between atoms: _15  and  _16
REMARK    9  A    between atoms: _16  and  _17
REMARK   10  A    between atoms: _17  and  _18
REMARK   11  A    between atoms: _27  and  _29
REMARK   12  A    between atoms: _29  and  _30
REMARK   13  A    between atoms: _29  and  _32
REMARK   14  A    between atoms: _32  and  _33
REMARK   15  A    between atoms: _43  and  _45
REMARK   16  A    between atoms: _45  and  _46
REMARK   17  A    between atoms: _45  and  _48
REMARK   18  A    between atoms: _48  and  _49
REMARK   19  A    between atoms: _52  and  _54
REMARK   20  A    between atoms: _54  and  _55
REMARK   21  A    between atoms: _54  and  _57
REMARK   22  A    between atoms: _57  and  _58
REMARK   23  A    between atoms: _61  and  _63
REMARK   24  A    between atoms: _63  and  _64
REMARK   25  A    between atoms: _63  and  _66
REMARK   26  A    between atoms: _66  and  _67
REMARK   27  A    between atoms: _69  and  _71
REMARK   28  A    between atoms: _71  and  _72
REMARK   29  A    between atoms: _71  and  _74
REMARK   30  A    between atoms: _74  and  _75
REMARK   31  A    between atoms: _78  and  _80
REMARK   32  A    between atoms: _80  and  _81
REMARK   33  A    between atoms: _83  and  _85
REMARK   34  A    between atoms: _85  and  _86
REMARK   35  A    between atoms: _85  and  _88
REMARK   36  A    between atoms: _88  and  _89
REMARK   37  A    between atoms: _94  and  _96
REMARK   38  A    between atoms: _96  and  _97
REMARK   39  A    between atoms: _99  and  _101
REMARK   40  A    between atoms: _101  and  _102
REMARK   41  A    between atoms: _101  and  _104
REMARK   42  A    between atoms: _104  and  _105
REMARK   43  A    between atoms: _105  and  _106
REMARK   44  A    between atoms: _108  and  _110
REMARK   45  A    between atoms: _110  and  _111
REMARK   46  A    between atoms: _110  and  _113
REMARK   47  A    between atoms: _113  and  _114
REMARK   48  A    between atoms: _119  and  _120
REMARK   49  A    between atoms: _122  and  _124
REMARK   50  A    between atoms: _124  and  _125
REMARK   51  A    between atoms: _124  and  _127
REMARK   52  A    between atoms: _127  and  _128
REMARK   53  A    between atoms: _131  and  _133
REMARK   54  A    between atoms: _133  and  _134
REMARK   55  A    between atoms: _133  and  _136
REMARK   56  A    between atoms: _136  and  _137
REMARK   57  A    between atoms: _139  and  _141
REMARK   58  A    between atoms: _141  and  _142
REMARK   59  A    between atoms: _141  and  _144
REMARK   60  A    between atoms: _144  and  _145
REMARK   61  A    between atoms: _148  and  _150
REMARK   62  A    between atoms: _150  and  _151
REMARK   63  A    between atoms: _150  and  _153
REMARK   64  A    between atoms: _153  and  _154
REMARK   65  A    between atoms: _154  and  _155
REMARK   66  A    between atoms: _155  and  _156
REMARK   67  A    between atoms: _165  and  _167
REMARK   68  A    between atoms: _167  and  _168
REMARK   69  A    between atoms: _167  and  _170
REMARK   70  A    between atoms: _170  and  _171
REMARK   71  A    between atoms: _177  and  _179
REMARK   72  A    between atoms: _179  and  _180
REMARK   73  A    between atoms: _179  and  _182
REMARK   74  A    between atoms: _182  and  _183
REMARK   75  A    between atoms: _193  and  _195
REMARK   76  A    between atoms: _195  and  _196
REMARK   77  A    between atoms: _195  and  _198
REMARK   78  A    between atoms: _201  and  _203
REMARK   79  A    between atoms: _203  and  _204
REMARK   80  A    between atoms: _203  and  _206
REMARK   81  A    between atoms: _206  and  _207
REMARK   82  A    between atoms: _210  and  _212
REMARK   83  A    between atoms: _212  and  _213
REMARK   84  A    between atoms: _215  and  _217
REMARK   85  A    between atoms: _217  and  _218
REMARK   86  A    between atoms: _217  and  _220
REMARK   87  A    between atoms: _220  and  _221
REMARK   88  A    between atoms: _223  and  _225
REMARK   89  A    between atoms: _225  and  _226
REMARK   90  A    between atoms: _225  and  _228
REMARK   91  A    between atoms: _228  and  _229
REMARK   92  A    between atoms: _239  and  _241
REMARK   93  A    between atoms: _241  and  _242
REMARK   94  A    between atoms: _241  and  _244
REMARK   95  A    between atoms: _244  and  _245
REMARK   96  A    between atoms: _247  and  _249
REMARK   97  A    between atoms: _249  and  _250
REMARK   98  A    between atoms: _249  and  _252
REMARK   99  A    between atoms: _252  and  _253
REMARK  100  A    between atoms: _256  and  _258
REMARK  101  A    between atoms: _258  and  _259
REMARK  102  A    between atoms: _262  and  _264
REMARK  103  A    between atoms: _264  and  _265
REMARK  104  A    between atoms: _264  and  _267
REMARK  105  A    between atoms: _267  and  _268
REMARK  106  A    between atoms: _270  and  _272
REMARK  107  A    between atoms: _272  and  _273
REMARK  108  A    between atoms: _272  and  _275
REMARK  109  A    between atoms: _275  and  _276
REMARK  110  A    between atoms: _276  and  _277
REMARK  111  A    between atoms: _281  and  _282
REMARK  112  A    between atoms: _287  and  _289
REMARK  113  A    between atoms: _289  and  _290
REMARK  114  A    between atoms: _289  and  _292
REMARK  115  A    between atoms: _292  and  _293
REMARK  116  A    between atoms: _295  and  _297
REMARK  117  A    between atoms: _297  and  _298
REMARK  118  A    between atoms: _297  and  _300
REMARK  119  A    between atoms: _300  and  _301
REMARK  120  A    between atoms: _301  and  _302
REMARK  121  A    between atoms: _307  and  _309
REMARK  122  A    between atoms: _309  and  _310
REMARK  123  A    between atoms: _309  and  _312
REMARK  124  A    between atoms: _312  and  _313
REMARK  125  A    between atoms: _316  and  _318
REMARK  126  A    between atoms: _318  and  _319
REMARK  127  A    between atoms: _318  and  _321
REMARK  128  A    between atoms: _321  and  _322
REMARK  129  A    between atoms: _325  and  _327
REMARK  130  A    between atoms: _327  and  _328
REMARK  131  A    between atoms: _327  and  _330
REMARK  132  A    between atoms: _330  and  _331
REMARK  133  A    between atoms: _336  and  _337
REMARK  134  A    between atoms: _339  and  _341
REMARK  135  A    between atoms: _341  and  _342
REMARK  136  A    between atoms: _341  and  _344
REMARK  137  A    between atoms: _344  and  _345
REMARK  138  A    between atoms: _351  and  _353
REMARK  139  A    between atoms: _353  and  _354
REMARK  140  A    between atoms: _353  and  _356
REMARK  141  A    between atoms: _356  and  _357
REMARK  142  A    between atoms: _357  and  _358
REMARK                            x       y       z     vdW  Elec       q    Type
REMARK                         _______ _______ _______ _____ _____    ______ ____
ROOT
ATOM      1  CB  PHE A   1     -10.848  18.208  14.952  0.00  0.00    +0.051 C 
ENDROOT
BRANCH   1   2
ATOM      2  CG  PHE A   1     -10.118  18.335  13.636  0.00  0.00    -0.020 A 
ATOM      3  CD2 PHE A   1      -8.924  19.060  13.564  0.00  0.00    -0.004 A 
ATOM      4  CE2 PHE A   1      -8.240  19.215  12.347  0.00  0.00    -0.000 A 
ATOM      5  CZ  PHE A   1      -8.751  18.647  11.200  0.00  0.00    -0.000 A 
ATOM      6  CE1 PHE A   1      -9.944  17.921  11.257  0.00  0.00    -0.000 A 
ATOM      7  CD1 PHE A   1     -10.621  17.774  12.479  0.00  0.00    -0.004 A 
ENDBRANCH   1   2
BRANCH   1   8
ATOM      8  CA  PHE A   1     -11.536  19.509  15.387  0.00  0.00    +0.137 C 
BRANCH   8   9
ATOM      9  N   PHE A   1     -12.261  19.340  16.645  0.00  0.00    -0.239 NA
ATOM     10  H   PHE A   1     -12.267  18.406  17.103  0.00  0.00    +0.142 HD
ENDBRANCH   8   9
BRANCH   8  11
ATOM     11  C   PHE A   1     -12.439  20.001  14.257  0.00  0.00    +0.224 C 
ATOM     12  O   PHE A   1     -12.089  20.942  13.540  0.00  0.00    -0.287 OA
ENDBRANCH   8  11
ENDBRANCH   1   8
TORSDOF 4
REMARK  Name = ../refined-set-2016/3dri/3dri_pocket.pdb
REMARK  142 active torsions:
REMARK  status: ('A' for Active; 'I' for Inactive)
REMARK    1  A    between atoms: _1  and  _3
REMARK    2  A    between atoms: _3  and  _4
REMARK    3  A    between atoms: _3  and  _6
REMARK    4  A    between atoms: _6  and  _7
REMARK    5  A    between atoms: _10  and  _12
REMARK    6  A    between atoms: _12  and  _13
REMARK    7  A    between atoms: _12  and  _15
REMARK    8  A    between atoms: _15  and  _16
REMARK    9  A    between atoms: _16  and  _17
REMARK   10  A    between atoms: _17  and  _18
REMARK   11  A    between atoms: _27  and  _29
REMARK   12  A    between atoms: _29  and  _30
REMARK   13  A    between atoms: _29  and  _32
REMARK   14  A    between atoms: _32  and  _33
REMARK   15  A    between atoms: _43  and  _45
REMARK   16  A    between atoms: _45  and  _46
REMARK   17  A    between atoms: _45  and  _48
REMARK   18  A    between atoms: _48  and  _49
REMARK   19  A    between atoms: _52  and  _54
REMARK   20  A    between atoms: _54  and  _55
REMARK   21  A    between atoms: _54  and  _57
REMARK   22  A    between atoms: _57  and  _58
REMARK   23  A    between atoms: _61  and  _63
REMARK   24  A    between atoms: _63  and  _64
REMARK   25  A    between atoms: _63  and  _66
REMARK   26  A    between atoms: _66  and  _67
REMARK   27  A    between atoms: _69  and  _71
REMARK   28  A    between atoms: _71  and  _72
REMARK   29  A    between atoms: _71  and  _74
REMARK   30  A    between atoms: _74  and  _75
REMARK   31  A    between atoms: _78  and  _80
REMARK   32  A    between atoms: _80  and  _81
REMARK   33  A    between atoms: _83  and  _85
REMARK   34  A    between atoms: _85  and  _86
REMARK   35  A    between atoms: _85  and  _88
REMARK   36  A    between atoms: _88  and  _89
REMARK   37  A    between atoms: _94  and  _96
REMARK   38  A    between atoms: _96  and  _97
REMARK   39  A    between atoms: _99  and  _101
REMARK   40  A    between atoms: _101  and  _102
REMARK   41  A    between atoms: _101  and  _104
REMARK   42  A    between atoms: _104  and  _105
REMARK   43  A    between atoms: _105  and  _106
REMARK   44  A    between atoms: _108  and  _110
REMARK   45  A    between atoms: _110  and  _111
REMARK   46  A    between atoms: _110  and  _113
REMARK   47  A    between atoms: _113  and  _114
REMARK   48  A    between atoms: _119  and  _120
REMARK   49  A    between atoms: _122  and  _124
REMARK   50  A    between atoms: _124  and  _125
REMARK   51  A    between atoms: _124  and  _127
REMARK   52  A    between atoms: _127  and  _128
REMARK   53  A    between atoms: _131  and  _133
REMARK   54  A    between atoms: _133  and  _134
REMARK   55  A    between atoms: _133  and  _136
REMARK   56  A    between atoms: _136  and  _137
REMARK   57  A    between atoms: _139  and  _141
REMARK   58  A    between atoms: _141  and  _142
REMARK   59  A    between atoms: _141  and  _144
REMARK   60  A    between atoms: _144  and  _145
REMARK   61  A    between atoms: _148  and  _150
REMARK   62  A    between atoms: _150  and  _151
REMARK   63  A    between atoms: _150  and  _153
REMARK   64  A    between atoms: _153  and  _154
REMARK   65  A    between atoms: _154  and  _155
REMARK   66  A    between atoms: _155  and  _156
REMARK   67  A    between atoms: _165  and  _167
REMARK   68  A    between atoms: _167  and  _168
REMARK   69  A    between atoms: _167  and  _170
REMARK   70  A    between atoms: _170  and  _171
REMARK   71  A    between atoms: _177  and  _179
REMARK   72  A    between atoms: _179  and  _180
REMARK   73  A    between atoms: _179  and  _182
REMARK   74  A    between atoms: _182  and  _183
REMARK   75  A    between atoms: _193  and  _195
REMARK   76  A    between atoms: _195  and  _196
REMARK   77  A    between atoms: _195  and  _198
REMARK   78  A    between atoms: _201  and  _203
REMARK   79  A    between atoms: _203  and  _204
REMARK   80  A    between atoms: _203  and  _206
REMARK   81  A    between atoms: _206  and  _207
REMARK   82  A    between atoms: _210  and  _212
REMARK   83  A    between atoms: _212  and  _213
REMARK   84  A    between atoms: _215  and  _217
REMARK   85  A    between atoms: _217  and  _218
REMARK   86  A    between atoms: _217  and  _220
REMARK   87  A    between atoms: _220  and  _221
REMARK   88  A    between atoms: _223  and  _225
REMARK   89  A    between atoms: _225  and  _226
REMARK   90  A    between atoms: _225  and  _228
REMARK   91  A    between atoms: _228  and  _229
REMARK   92  A    between atoms: _239  and  _241
REMARK   93  A    between atoms: _241  and  _242
REMARK   94  A    between atoms: _241  and  _244
REMARK   95  A    between atoms: _244  and  _245
REMARK   96  A    between atoms: _247  and  _249
REMARK   97  A    between atoms: _249  and  _250
REMARK   98  A    between atoms: _249  and  _252
REMARK   99  A    between atoms: _252  and  _253
REMARK  100  A    between atoms: _256  and  _258
REMARK  101  A    between atoms: _258  and  _259
REMARK  102  A    between atoms: _262  and  _264
REMARK  103  A    between atoms: _264  and  _265
REMARK  104  A    between atoms: _264  and  _267
REMARK  105  A    between atoms: _267  and  _268
REMARK  106  A    between atoms: _270  and  _272
REMARK  107  A    between atoms: _272  and  _273
REMARK  108  A    between atoms: _272  and  _275
REMARK  109  A    between atoms: _275  and  _276
REMARK  110  A    between atoms: _276  and  _277
REMARK  111  A    between atoms: _281  and  _282
REMARK  112  A    between atoms: _287  and  _289
REMARK  113  A    between atoms: _289  and  _290
REMARK  114  A    between atoms: _289  and  _292
REMARK  115  A    between atoms: _292  and  _293
REMARK  116  A    between atoms: _295  and  _297
REMARK  117  A    between atoms: _297  and  _298
REMARK  118  A    between atoms: _297  and  _300
REMARK  119  A    between atoms: _300  and  _301
REMARK  120  A    between atoms: _301  and  _302
REMARK  121  A    between atoms: _307  and  _309
REMARK  122  A    between atoms: _309  and  _310
REMARK  123  A    between atoms: _309  and  _312
REMARK  124  A    between atoms: _312  and  _313
REMARK  125  A    between atoms: _316  and  _318
REMARK  126  A    between atoms: _318  and  _319
REMARK  127  A    between atoms: _318  and  _321
REMARK  128  A    between atoms: _321  and  _322
REMARK  129  A    between atoms: _325  and  _327
REMARK  130  A    between atoms: _327  and  _328
REMARK  131  A    between atoms: _327  and  _330
REMARK  132  A    between atoms: _330  and  _331
REMARK  133  A    between atoms: _336  and  _337
REMARK  134  A    between atoms: _339  and  _341
REMARK  135  A    between atoms: _341  and  _342
REMARK  136  A    between atoms: _341  and  _344
REMARK  137  A    between atoms: _344  and  _345
REMARK  138  A    between atoms: _351  and  _353
REMARK  139  A    between atoms: _353  and  _354
REMARK  140  A    between atoms: _353  and  _356
REMARK  141  A    between atoms: _356  and  _357
REMARK  142  A    between atoms: _357  and  _358
REMARK                            x       y       z     vdW  Elec       q    Type
REMARK                         _______ _______ _______ _____ _____    ______ ____
ROOT
ATOM      1  CA  TRP A   1     -12.144  24.335  14.509  0.00  0.00    +0.149 C 
ENDROOT
BRANCH   1   2
ATOM      2  C   TRP A   1     -11.904  24.559  13.015  0.00  0.00    +0.239 C 
ATOM      3  O   TRP A   1     -11.729  25.677  12.578  0.00  0.00    -0.274 OA
ATOM      4  N   VAL A   2     -11.920  23.487  12.227  0.00  0.00    -0.298 N 
ATOM      5  H   VAL A   2     -12.058  22.546  12.647  0.00  0.00    +0.150 HD
BRANCH   4   6
ATOM      6  CA  VAL A   2     -11.748  23.608  10.793  0.00  0.00    +0.137 C 
BRANCH   6   7
ATOM      7  CB  VAL A   2     -11.841  22.218  10.102  0.00  0.00    +0.026 C 
ATOM      8  CG2 VAL A   2     -10.664  21.342  10.529  0.00  0.00    +0.002 C 
ATOM      9  CG1 VAL A   2     -11.845  22.366   8.600  0.00  0.00    +0.002 C 
ENDBRANCH   6   7
BRANCH   6  10
ATOM     10  C   VAL A   2     -12.782  24.571  10.170  0.00  0.00    +0.227 C 
ATOM     11  O   VAL A   2     -12.432  25.473   9.411  0.00  0.00    -0.286 OA
ENDBRANCH   6  10
ENDBRANCH   4   6
ENDBRANCH   1   2
BRANCH   1  12
ATOM     12  N   TRP A   1     -13.320  23.505  14.726  0.00  0.00    -0.238 NA
ATOM     13  H   TRP A   1     -13.204  22.580  15.187  0.00  0.00    +0.142 HD
ENDBRANCH   1  12
BRANCH   1  14
ATOM     14  CB  TRP A   1     -10.915  23.703  15.183  0.00  0.00    +0.054 C 
BRANCH  14  15
ATOM     15  CG  TRP A   1      -9.663  24.474  14.918  0.00  0.00    -0.002 A 
ATOM     16  CD1 TRP A   1      -9.180  25.553  15.610  0.00  0.00    +0.068 A 
ATOM     17  NE1 TRP A   1      -8.024  26.008  15.014  0.00  0.00    -0.352 N 
ATOM     18  HE1 TRP A   1      -7.454  26.815  15.340  0.00  0.00    +0.166 HD
ATOM     19  CE2 TRP A   1      -7.747  25.229  13.927  0.00  0.00    +0.056 A 
ATOM     20  CZ2 TRP A   1      -6.698  25.292  13.014  0.00  0.00    +0.017 A 
ATOM     21  CH2 TRP A   1      -6.687  24.362  12.002  0.00  0.00    +0.001 A 
ATOM     22  CZ3 TRP A   1      -7.696  23.403  11.874  0.00  0.00    +0.000 A 
ATOM     23  CE3 TRP A   1      -8.725  23.326  12.790  0.00  0.00    +0.001 A 
ATOM     24  CD2 TRP A   1      -8.772  24.260  13.831  0.00  0.00    +0.013 A 
ENDBRANCH  14  15
ENDBRANCH   1  14
TORSDOF 7
REMARK  Name = ../refined-set-2016/3dri/3dri_pocket.pdb
REMARK  142 active torsions:
REMARK  status: ('A' for Active; 'I' for Inactive)
REMARK    1  A    between atoms: _1  and  _3
REMARK    2  A    between atoms: _3  and  _4
REMARK    3  A    between atoms: _3  and  _6
REMARK    4  A    between atoms: _6  and  _7
REMARK    5  A    between atoms: _10  and  _12
REMARK    6  A    between atoms: _12  and  _13
REMARK    7  A    between atoms: _12  and  _15
REMARK    8  A    between atoms: _15  and  _16
REMARK    9  A    between atoms: _16  and  _17
REMARK   10  A    between atoms: _17  and  _18
REMARK   11  A    between atoms: _27  and  _29
REMARK   12  A    between atoms: _29  and  _30
REMARK   13  A    between atoms: _29  and  _32
REMARK   14  A    between atoms: _32  and  _33
REMARK   15  A    between atoms: _43  and  _45
REMARK   16  A    between atoms: _45  and  _46
REMARK   17  A    between atoms: _45  and  _48
REMARK   18  A    between atoms: _48  and  _49
REMARK   19  A    between atoms: _52  and  _54
REMARK   20  A    between atoms: _54  and  _55
REMARK   21  A    between atoms: _54  and  _57
REMARK   22  A    between atoms: _57  and  _58
REMARK   23  A    between atoms: _61  and  _63
REMARK   24  A    between atoms: _63  and  _64
REMARK   25  A    between atoms: _63  and  _66
REMARK   26  A    between atoms: _66  and  _67
REMARK   27  A    between atoms: _69  and  _71
REMARK   28  A    between atoms: _71  and  _72
REMARK   29  A    between atoms: _71  and  _74
REMARK   30  A    between atoms: _74  and  _75
REMARK   31  A    between atoms: _78  and  _80
REMARK   32  A    between atoms: _80  and  _81
REMARK   33  A    between atoms: _83  and  _85
REMARK   34  A    between atoms: _85  and  _86
REMARK   35  A    between atoms: _85  and  _88
REMARK   36  A    between atoms: _88  and  _89
REMARK   37  A    between atoms: _94  and  _96
REMARK   38  A    between atoms: _96  and  _97
REMARK   39  A    between atoms: _99  and  _101
REMARK   40  A    between atoms: _101  and  _102
REMARK   41  A    between atoms: _101  and  _104
REMARK   42  A    between atoms: _104  and  _105
REMARK   43  A    between atoms: _105  and  _106
REMARK   44  A    between atoms: _108  and  _110
REMARK   45  A    between atoms: _110  and  _111
REMARK   46  A    between atoms: _110  and  _113
REMARK   47  A    between atoms: _113  and  _114
REMARK   48  A    between atoms: _119  and  _120
REMARK   49  A    between atoms: _122  and  _124
REMARK   50  A    between atoms: _124  and  _125
REMARK   51  A    between atoms: _124  and  _127
REMARK   52  A    between atoms: _127  and  _128
REMARK   53  A    between atoms: _131  and  _133
REMARK   54  A    between atoms: _133  and  _134
REMARK   55  A    between atoms: _133  and  _136
REMARK   56  A    between atoms: _136  and  _137
REMARK   57  A    between atoms: _139  and  _141
REMARK   58  A    between atoms: _141  and  _142
REMARK   59  A    between atoms: _141  and  _144
REMARK   60  A    between atoms: _144  and  _145
REMARK   61  A    between atoms: _148  and  _150
REMARK   62  A    between atoms: _150  and  _151
REMARK   63  A    between atoms: _150  and  _153
REMARK   64  A    between atoms: _153  and  _154
REMARK   65  A    between atoms: _154  and  _155
REMARK   66  A    between atoms: _155  and  _156
REMARK   67  A    between atoms: _165  and  _167
REMARK   68  A    between atoms: _167  and  _168
REMARK   69  A    between atoms: _167  and  _170
REMARK   70  A    between atoms: _170  and  _171
REMARK   71  A    between atoms: _177  and  _179
REMARK   72  A    between atoms: _179  and  _180
REMARK   73  A    between atoms: _179  and  _182
REMARK   74  A    between atoms: _182  and  _183
REMARK   75  A    between atoms: _193  and  _195
REMARK   76  A    between atoms: _195  and  _196
REMARK   77  A    between atoms: _195  and  _198
REMARK   78  A    between atoms: _201  and  _203
REMARK   79  A    between atoms: _203  and  _204
REMARK   80  A    between atoms: _203  and  _206
REMARK   81  A    between atoms: _206  and  _207
REMARK   82  A    between atoms: _210  and  _212
REMARK   83  A    between atoms: _212  and  _213
REMARK   84  A    between atoms: _215  and  _217
REMARK   85  A    between atoms: _217  and  _218
REMARK   86  A    between atoms: _217  and  _220
REMARK   87  A    between atoms: _220  and  _221
REMARK   88  A    between atoms: _223  and  _225
REMARK   89  A    between atoms: _225  and  _226
REMARK   90  A    between atoms: _225  and  _228
REMARK   91  A    between atoms: _228  and  _229
REMARK   92  A    between atoms: _239  and  _241
REMARK   93  A    between atoms: _241  and  _242
REMARK   94  A    between atoms: _241  and  _244
REMARK   95  A    between atoms: _244  and  _245
REMARK   96  A    between atoms: _247  and  _249
REMARK   97  A    between atoms: _249  and  _250
REMARK   98  A    between atoms: _249  and  _252
REMARK   99  A    between atoms: _252  and  _253
REMARK  100  A    between atoms: _256  and  _258
REMARK  101  A    between atoms: _258  and  _259
REMARK  102  A    between atoms: _262  and  _264
REMARK  103  A    between atoms: _264  and  _265
REMARK  104  A    between atoms: _264  and  _267
REMARK  105  A    between atoms: _267  and  _268
REMARK  106  A    between atoms: _270  and  _272
REMARK  107  A    between atoms: _272  and  _273
REMARK  108  A    between atoms: _272  and  _275
REMARK  109  A    between atoms: _275  and  _276
REMARK  110  A    between atoms: _276  and  _277
REMARK  111  A    between atoms: _281  and  _282
REMARK  112  A    between atoms: _287  and  _289
REMARK  113  A    between atoms: _289  and  _290
REMARK  114  A    between atoms: _289  and  _292
REMARK  115  A    between atoms: _292  and  _293
REMARK  116  A    between atoms: _295  and  _297
REMARK  117  A    between atoms: _297  and  _298
REMARK  118  A    between atoms: _297  and  _300
REMARK  119  A    between atoms: _300  and  _301
REMARK  120  A    between atoms: _301  and  _302
REMARK  121  A    between atoms: _307  and  _309
REMARK  122  A    between atoms: _309  and  _310
REMARK  123  A    between atoms: _309  and  _312
REMARK  124  A    between atoms: _312  and  _313
REMARK  125  A    between atoms: _316  and  _318
REMARK  126  A    between atoms: _318  and  _319
REMARK  127  A    between atoms: _318  and  _321
REMARK  128  A    between atoms: _321  and  _322
REMARK  129  A    between atoms: _325  and  _327
REMARK  130  A    between atoms: _327  and  _328
REMARK  131  A    between atoms: _327  and  _330
REMARK  132  A    between atoms: _330  and  _331
REMARK  133  A    between atoms: _336  and  _337
REMARK  134  A    between atoms: _339  and  _341
REMARK  135  A    between atoms: _341  and  _342
REMARK  136  A    between atoms: _341  and  _344
REMARK  137  A    between atoms: _344  and  _345
REMARK  138  A    between atoms: _351  and  _353
REMARK  139  A    between atoms: _353  and  _354
REMARK  140  A    between atoms: _353  and  _356
REMARK  141  A    between atoms: _356  and  _357
REMARK  142  A    between atoms: _357  and  _358
REMARK                            x       y       z     vdW  Elec       q    Type
REMARK                         _______ _______ _______ _____ _____    ______ ____
ROOT
ATOM      1  CA  THR A   1     -11.874  28.026   6.853  0.00  0.00    +0.160 C 
ENDROOT
BRANCH   1   2
ATOM      2  N   THR A   1     -11.842  28.096   8.311  0.00  0.00    -0.237 NA
ATOM      3  H   THR A   1     -12.464  27.475   8.867  0.00  0.00    +0.142 HD
ENDBRANCH   1   2
BRANCH   1   4
ATOM      4  CB  THR A   1     -11.623  26.583   6.329  0.00  0.00    +0.134 C 
ATOM      5  CG2 THR A   1     -10.309  26.023   6.886  0.00  0.00    +0.034 C 
BRANCH   4   6
ATOM      6  OG1 THR A   1     -12.703  25.730   6.693  0.00  0.00    -0.383 OA
ATOM      7  HG1 THR A   1     -12.785  25.706   7.679  0.00  0.00    +0.210 HD
ENDBRANCH   4   6
ENDBRANCH   1   4
BRANCH   1   8
ATOM      8  C   THR A   1     -13.149  28.573   6.211  0.00  0.00    +0.227 C 
ATOM      9  O   THR A   1     -13.247  28.587   4.990  0.00  0.00    -0.287 OA
ENDBRANCH   1   8
TORSDOF 4
REMARK  Name = ../refined-set-2016/3dri/3dri_pocket.pdb
REMARK  142 active torsions:
REMARK  status: ('A' for Active; 'I' for Inactive)
REMARK    1  A    between atoms: _1  and  _3
REMARK    2  A    between atoms: _3  and  _4
REMARK    3  A    between atoms: _3  and  _6
REMARK    4  A    between atoms: _6  and  _7
REMARK    5  A    between atoms: _10  and  _12
REMARK    6  A    between atoms: _12  and  _13
REMARK    7  A    between atoms: _12  and  _15
REMARK    8  A    between atoms: _15  and  _16
REMARK    9  A    between atoms: _16  and  _17
REMARK   10  A    between atoms: _17  and  _18
REMARK   11  A    between atoms: _27  and  _29
REMARK   12  A    between atoms: _29  and  _30
REMARK   13  A    between atoms: _29  and  _32
REMARK   14  A    between atoms: _32  and  _33
REMARK   15  A    between atoms: _43  and  _45
REMARK   16  A    between atoms: _45  and  _46
REMARK   17  A    between atoms: _45  and  _48
REMARK   18  A    between atoms: _48  and  _49
REMARK   19  A    between atoms: _52  and  _54
REMARK   20  A    between atoms: _54  and  _55
REMARK   21  A    between atoms: _54  and  _57
REMARK   22  A    between atoms: _57  and  _58
REMARK   23  A    between atoms: _61  and  _63
REMARK   24  A    between atoms: _63  and  _64
REMARK   25  A    between atoms: _63  and  _66
REMARK   26  A    between atoms: _66  and  _67
REMARK   27  A    between atoms: _69  and  _71
REMARK   28  A    between atoms: _71  and  _72
REMARK   29  A    between atoms: _71  and  _74
REMARK   30  A    between atoms: _74  and  _75
REMARK   31  A    between atoms: _78  and  _80
REMARK   32  A    between atoms: _80  and  _81
REMARK   33  A    between atoms: _83  and  _85
REMARK   34  A    between atoms: _85  and  _86
REMARK   35  A    between atoms: _85  and  _88
REMARK   36  A    between atoms: _88  and  _89
REMARK   37  A    between atoms: _94  and  _96
REMARK   38  A    between atoms: _96  and  _97
REMARK   39  A    between atoms: _99  and  _101
REMARK   40  A    between atoms: _101  and  _102
REMARK   41  A    between atoms: _101  and  _104
REMARK   42  A    between atoms: _104  and  _105
REMARK   43  A    between atoms: _105  and  _106
REMARK   44  A    between atoms: _108  and  _110
REMARK   45  A    between atoms: _110  and  _111
REMARK   46  A    between atoms: _110  and  _113
REMARK   47  A    between atoms: _113  and  _114
REMARK   48  A    between atoms: _119  and  _120
REMARK   49  A    between atoms: _122  and  _124
REMARK   50  A    between atoms: _124  and  _125
REMARK   51  A    between atoms: _124  and  _127
REMARK   52  A    between atoms: _127  and  _128
REMARK   53  A    between atoms: _131  and  _133
REMARK   54  A    between atoms: _133  and  _134
REMARK   55  A    between atoms: _133  and  _136
REMARK   56  A    between atoms: _136  and  _137
REMARK   57  A    between atoms: _139  and  _141
REMARK   58  A    between atoms: _141  and  _142
REMARK   59  A    between atoms: _141  and  _144
REMARK   60  A    between atoms: _144  and  _145
REMARK   61  A    between atoms: _148  and  _150
REMARK   62  A    between atoms: _150  and  _151
REMARK   63  A    between atoms: _150  and  _153
REMARK   64  A    between atoms: _153  and  _154
REMARK   65  A    between atoms: _154  and  _155
REMARK   66  A    between atoms: _155  and  _156
REMARK   67  A    between atoms: _165  and  _167
REMARK   68  A    between atoms: _167  and  _168
REMARK   69  A    between atoms: _167  and  _170
REMARK   70  A    between atoms: _170  and  _171
REMARK   71  A    between atoms: _177  and  _179
REMARK   72  A    between atoms: _179  and  _180
REMARK   73  A    between atoms: _179  and  _182
REMARK   74  A    between atoms: _182  and  _183
REMARK   75  A    between atoms: _193  and  _195
REMARK   76  A    between atoms: _195  and  _196
REMARK   77  A    between atoms: _195  and  _198
REMARK   78  A    between atoms: _201  and  _203
REMARK   79  A    between atoms: _203  and  _204
REMARK   80  A    between atoms: _203  and  _206
REMARK   81  A    between atoms: _206  and  _207
REMARK   82  A    between atoms: _210  and  _212
REMARK   83  A    between atoms: _212  and  _213
REMARK   84  A    between atoms: _215  and  _217
REMARK   85  A    between atoms: _217  and  _218
REMARK   86  A    between atoms: _217  and  _220
REMARK   87  A    between atoms: _220  and  _221
REMARK   88  A    between atoms: _223  and  _225
REMARK   89  A    between atoms: _225  and  _226
REMARK   90  A    between atoms: _225  and  _228
REMARK   91  A    between atoms: _228  and  _229
REMARK   92  A    between atoms: _239  and  _241
REMARK   93  A    between atoms: _241  and  _242
REMARK   94  A    between atoms: _241  and  _244
REMARK   95  A    between atoms: _244  and  _245
REMARK   96  A    between atoms: _247  and  _249
REMARK   97  A    between atoms: _249  and  _250
REMARK   98  A    between atoms: _249  and  _252
REMARK   99  A    between atoms: _252  and  _253
REMARK  100  A    between atoms: _256  and  _258
REMARK  101  A    between atoms: _258  and  _259
REMARK  102  A    between atoms: _262  and  _264
REMARK  103  A    between atoms: _264  and  _265
REMARK  104  A    between atoms: _264  and  _267
REMARK  105  A    between atoms: _267  and  _268
REMARK  106  A    between atoms: _270  and  _272
REMARK  107  A    between atoms: _272  and  _273
REMARK  108  A    between atoms: _272  and  _275
REMARK  109  A    between atoms: _275  and  _276
REMARK  110  A    between atoms: _276  and  _277
REMARK  111  A    between atoms: _281  and  _282
REMARK  112  A    between atoms: _287  and  _289
REMARK  113  A    between atoms: _289  and  _290
REMARK  114  A    between atoms: _289  and  _292
REMARK  115  A    between atoms: _292  and  _293
REMARK  116  A    between atoms: _295  and  _297
REMARK  117  A    between atoms: _297  and  _298
REMARK  118  A    between atoms: _297  and  _300
REMARK  119  A    between atoms: _300  and  _301
REMARK  120  A    between atoms: _301  and  _302
REMARK  121  A    between atoms: _307  and  _309
REMARK  122  A    between atoms: _309  and  _310
REMARK  123  A    between atoms: _309  and  _312
REMARK  124  A    between atoms: _312  and  _313
REMARK  125  A    between atoms: _316  and  _318
REMARK  126  A    between atoms: _318  and  _319
REMARK  127  A    between atoms: _318  and  _321
REMARK  128  A    between atoms: _321  and  _322
REMARK  129  A    between atoms: _325  and  _327
REMARK  130  A    between atoms: _327  and  _328
REMARK  131  A    between atoms: _327  and  _330
REMARK  132  A    between atoms: _330  and  _331
REMARK  133  A    between atoms: _336  and  _337
REMARK  134  A    between atoms: _339  and  _341
REMARK  135  A    between atoms: _341  and  _342
REMARK  136  A    between atoms: _341  and  _344
REMARK  137  A    between atoms: _344  and  _345
REMARK  138  A    between atoms: _351  and  _353
REMARK  139  A    between atoms: _353  and  _354
REMARK  140  A    between atoms: _353  and  _356
REMARK  141  A    between atoms: _356  and  _357
REMARK  142  A    between atoms: _357  and  _358
REMARK                            x       y       z     vdW  Elec       q    Type
REMARK                         _______ _______ _______ _____ _____    ______ ____
ROOT
ATOM      1  CA  ALA A   6       3.963  17.345   1.027  0.00  0.00    +0.149 C 
ATOM      2  CB  ALA A   6       3.286  17.896  -0.232  0.00  0.00    +0.031 C 
ENDROOT
BRANCH   1   3
ATOM      3  C   ALA A   6       5.472  17.470   0.903  0.00  0.00    +0.241 C 
ATOM      4  O   ALA A   6       6.071  18.369   1.519  0.00  0.00    -0.273 OA
ATOM      5  N   SER A   7       6.076  16.604   0.092  0.00  0.00    -0.295 N 
ATOM      6  H   SER A   7       5.499  15.946  -0.470  0.00  0.00    +0.150 HD
BRANCH   5   7
ATOM      7  CA  SER A   7       7.539  16.557  -0.026  0.00  0.00    +0.178 C 
BRANCH   7   8
ATOM      8  C   SER A   7       8.117  17.684  -0.907  0.00  0.00    +0.243 C 
ATOM      9  O   SER A   7       9.323  17.813  -1.056  0.00  0.00    -0.273 OA
ATOM     10  N   GLU A   8       7.235  18.479  -1.498  0.00  0.00    -0.297 N 
ATOM     11  H   GLU A   8       6.269  18.122  -1.642  0.00  0.00    +0.150 HD
BRANCH  10  12
ATOM     12  CA  GLU A   8       7.552  19.838  -1.960  0.00  0.00    +0.149 C 
BRANCH  12  13
ATOM     13  C   GLU A   8       6.821  20.765  -0.977  0.00  0.00    +0.244 C 
ATOM     14  N   PRO A   9       7.558  21.371  -0.039  0.00  0.00    -0.272 N 
ATOM     15  CA  PRO A   9       6.949  22.020   1.120  0.00  0.00    +0.152 C 
ATOM     16  CB  PRO A   9       8.116  22.111   2.110  0.00  0.00    +0.031 C 
ATOM     17  CG  PRO A   9       9.281  22.301   1.241  0.00  0.00    +0.024 C 
ATOM     18  CD  PRO A   9       9.033  21.449   0.019  0.00  0.00    +0.094 C 
ATOM     19  O   GLU A   8       5.598  20.884  -1.030  0.00  0.00    -0.273 OA
BRANCH  15  20
ATOM     20  C   PRO A   9       6.423  23.404   0.801  0.00  0.00    +0.241 C 
ATOM     21  O   PRO A   9       6.843  24.401   1.426  0.00  0.00    -0.273 OA
ATOM     22  N   SER A  10       5.479  23.459  -0.145  0.00  0.00    -0.295 N 
ATOM     23  H   SER A  10       5.068  22.575  -0.507  0.00  0.00    +0.150 HD
BRANCH  22  24
ATOM     24  CA  SER A  10       5.014  24.737  -0.679  0.00  0.00    +0.178 C 
BRANCH  24  25
ATOM     25  C   SER A  10       4.340  25.573   0.351  0.00  0.00    +0.243 C 
ATOM     26  O   SER A  10       3.449  25.106   1.038  0.00  0.00    -0.273 OA
ATOM     27  N   GLN A  11       4.747  26.834   0.450  0.00  0.00    -0.298 N 
ATOM     28  H   GLN A  11       5.482  27.183  -0.198  0.00  0.00    +0.150 HD
BRANCH  27  29
ATOM     29  CA  GLN A  11       4.189  27.739   1.444  0.00  0.00    +0.137 C 
BRANCH  29  30
ATOM     30  C   GLN A  11       3.067  28.602   0.887  0.00  0.00    +0.227 C 
ATOM     31  O   GLN A  11       2.328  29.232   1.658  0.00  0.00    -0.286 OA
ENDBRANCH  29  30
BRANCH  29  32
ATOM     32  CB  GLN A  11       5.289  28.639   1.991  0.00  0.00    +0.037 C 
BRANCH  32  33
ATOM     33  CG  GLN A  11       6.419  27.870   2.636  0.00  0.00    +0.087 C 
BRANCH  33  34
ATOM     34  CD  GLN A  11       5.957  27.167   3.881  0.00  0.00    +0.219 C 
ATOM     35  OE1 GLN A  11       5.772  27.791   4.939  0.00  0.00    -0.275 OA
ATOM     36  NE2 GLN A  11       5.744  25.863   3.768  0.00  0.00    -0.329 N 
ATOM     37 HE21 GLN A  11       5.407  25.318   4.587  0.00  0.00    +0.145 HD
ATOM     38 HE22 GLN A  11       5.914  25.385   2.860  0.00  0.00    +0.145 HD
ENDBRANCH  33  34
ENDBRANCH  32  33
ENDBRANCH  29  32
ENDBRANCH  27  29
ENDBRANCH  24  25
BRANCH  24  39
ATOM     39  CB  SER A  10       4.037  24.557  -1.842  0.00  0.00    +0.166 C 
BRANCH  39  40
ATOM     40  OG  SER A  10       3.594  25.842  -2.274  0.00  0.00    -0.380 OA
ATOM     41  H   SER A  10       4.373  26.376  -2.570  0.00  0.00    +0.211 HD
ENDBRANCH  39  40
ENDBRANCH  24  39
ENDBRANCH  22  24
ENDBRANCH  15  20
ENDBRANCH  12  13
BRANCH  12  42
ATOM     42  CB  GLU A   8       7.055  20.031  -3.401  0.00  0.00    +0.041 C 
BRANCH  42  43
ATOM     43  CG  GLU A   8       6.783  21.460  -3.860  0.00  0.00    +0.116 C 
BRANCH  43  44
ATOM     44  CD  GLU A   8       7.993  22.389  -3.874  0.00  0.00    +0.365 C 
ATOM     45  OE2 GLU A   8       9.145  21.958  -3.620  0.00  0.00    -0.246 OA
ATOM     46  OE1 GLU A   8       7.771  23.582  -4.189  0.00  0.00    -0.246 OA
ENDBRANCH  43  44
ENDBRANCH  42  43
ENDBRANCH  12  42
ENDBRANCH  10  12
ENDBRANCH   7   8
BRANCH   7  47
ATOM     47  CB  SER A   7       8.022  15.163  -0.475  0.00  0.00    +0.166 C 
BRANCH  47  48
ATOM     48  OG  SER A   7       7.213  14.617  -1.486  0.00  0.00    -0.380 OA
ATOM     49  H   SER A   7       7.225  15.215  -2.275  0.00  0.00    +0.211 HD
ENDBRANCH  47  48
ENDBRANCH   7  47
ENDBRANCH   5   7
ENDBRANCH   1   3
BRANCH   1  52
ATOM     50  C   LEU A   5       3.817  17.735   3.440  0.00  0.00    +0.241 C 
ATOM     51  O   LEU A   5       4.356  16.670   3.719  0.00  0.00    -0.273 OA
ATOM     52  N   ALA A   6       3.540  18.117   2.194  0.00  0.00    -0.297 N 
ATOM     53  H   ALA A   6       3.004  18.996   2.046  0.00  0.00    +0.150 HD
BRANCH  50  54
ATOM     54  CA  LEU A   5       3.452  18.731   4.533  0.00  0.00    +0.149 C 
BRANCH  54  56
ATOM     55  C   SER A   4       1.667  17.776   5.888  0.00  0.00    +0.243 C 
ATOM     56  N   LEU A   5       2.952  18.081   5.737  0.00  0.00    -0.297 N 
ATOM     57  H   LEU A   5       3.619  17.849   6.500  0.00  0.00    +0.150 HD
ATOM     58  O   SER A   4       0.824  17.940   5.005  0.00  0.00    -0.273 OA
BRANCH  55  59
ATOM     59  CA  SER A   4       1.255  17.258   7.246  0.00  0.00    +0.178 C 
BRANCH  59  62
ATOM     60  C   TRP A   3       0.936  19.210   8.677  0.00  0.00    +0.241 C 
ATOM     61  O   TRP A   3       2.055  19.181   9.202  0.00  0.00    -0.273 OA
ATOM     62  N   SER A   4       0.444  18.267   7.874  0.00  0.00    -0.295 N 
ATOM     63  H   SER A   4      -0.580  18.260   7.692  0.00  0.00    +0.150 HD
BRANCH  60  64
ATOM     64  CA  TRP A   3       0.006  20.364   8.927  0.00  0.00    +0.153 C 
BRANCH  64  67
ATOM     65  C   SER A   2      -1.026  20.992  11.023  0.00  0.00    +0.243 C 
ATOM     66  O   SER A   2      -2.168  20.708  10.633  0.00  0.00    -0.273 OA
ATOM     67  N   TRP A   3       0.064  20.785  10.309  0.00  0.00    -0.297 N 
ATOM     68  H   TRP A   3       0.993  20.929  10.754  0.00  0.00    +0.150 HD
BRANCH  65  69
ATOM     69  CA  SER A   2      -0.801  21.657  12.376  0.00  0.00    +0.178 C 
BRANCH  69  72
ATOM     70  C   GLY A   1      -1.683  23.685  13.379  0.00  0.00    +0.240 C 
ATOM     71  O   GLY A   1      -0.611  23.898  13.963  0.00  0.00    -0.274 OA
ATOM     72  N   SER A   2      -1.873  22.614  12.609  0.00  0.00    -0.295 N 
ATOM     73  H   SER A   2      -2.802  22.459  12.168  0.00  0.00    +0.150 HD
BRANCH  70  74
ATOM     74  CA  GLY A   1      -2.845  24.643  13.544  0.00  0.00    +0.169 C 
BRANCH  74  75
ATOM     75  N   GLY A   1      -2.618  25.487  14.697  0.00  0.00    -0.236 NA
ATOM     76  H   GLY A   1      -1.676  25.911  14.815  0.00  0.00    +0.142 HD
ENDBRANCH  74  75
ENDBRANCH  70  74
ENDBRANCH  69  72
BRANCH  69  77
ATOM     77  CB  SER A   2      -0.720  20.620  13.480  0.00  0.00    +0.166 C 
BRANCH  77  78
ATOM     78  OG  SER A   2      -1.928  19.896  13.594  0.00  0.00    -0.380 OA
ATOM     79  H   SER A   2      -1.844  19.229  14.321  0.00  0.00    +0.211 HD
ENDBRANCH  77  78
ENDBRANCH  69  77
ENDBRANCH  65  69
ENDBRANCH  64  67
BRANCH  64  80
ATOM     80  CB  TRP A   3       0.470  21.485   8.023  0.00  0.00    +0.057 C 
BRANCH  80  81
ATOM     81  CG  TRP A   3      -0.367  22.689   8.096  0.00  0.00    -0.002 A 
ATOM     82  CD1 TRP A   3      -0.100  23.811   8.805  0.00  0.00    +0.068 A 
ATOM     83  NE1 TRP A   3      -1.090  24.732   8.626  0.00  0.00    -0.352 N 
ATOM     84  HE1 TRP A   3      -1.124  25.675   9.063  0.00  0.00    +0.166 HD
ATOM     85  CE2 TRP A   3      -2.031  24.213   7.778  0.00  0.00    +0.056 A 
ATOM     86  CZ2 TRP A   3      -3.218  24.765   7.296  0.00  0.00    +0.017 A 
ATOM     87  CH2 TRP A   3      -3.975  23.987   6.446  0.00  0.00    +0.001 A 
ATOM     88  CZ3 TRP A   3      -3.582  22.708   6.081  0.00  0.00    +0.000 A 
ATOM     89  CE3 TRP A   3      -2.392  22.155   6.552  0.00  0.00    +0.001 A 
ATOM     90  CD2 TRP A   3      -1.606  22.913   7.431  0.00  0.00    +0.013 A 
ENDBRANCH  80  81
ENDBRANCH  64  80
ENDBRANCH  60  64
ENDBRANCH  59  62
BRANCH  59  91
ATOM     91  CB  SER A   4       0.425  16.000   7.081  0.00  0.00    +0.166 C 
BRANCH  91  92
ATOM     92  OG  SER A   4       0.106  15.511   8.369  0.00  0.00    -0.380 OA
ATOM     93  H   SER A   4      -0.437  14.688   8.283  0.00  0.00    +0.211 HD
ENDBRANCH  91  92
ENDBRANCH  59  91
ENDBRANCH  55  59
ENDBRANCH  54  56
BRANCH  54  94
ATOM     94  CB  LEU A   5       4.715  19.523   4.860  0.00  0.00    +0.029 C 
BRANCH  94  95
ATOM     95  CG  LEU A   5       4.510  20.633   5.892  0.00  0.00    +0.002 C 
ATOM     96  CD2 LEU A   5       5.868  21.325   6.165  0.00  0.00    +0.000 C 
ATOM     97  CD1 LEU A   5       3.433  21.614   5.423  0.00  0.00    +0.000 C 
ENDBRANCH  94  95
ENDBRANCH  54  94
ENDBRANCH  50  54
ENDBRANCH   1  52
TORSDOF 39
REMARK  Name = ../refined-set-2016/3dri/3dri_pocket.pdb
REMARK  142 active torsions:
REMARK  status: ('A' for Active; 'I' for Inactive)
REMARK    1  A    between atoms: _1  and  _3
REMARK    2  A    between atoms: _3  and  _4
REMARK    3  A    between atoms: _3  and  _6
REMARK    4  A    between atoms: _6  and  _7
REMARK    5  A    between atoms: _10  and  _12
REMARK    6  A    between atoms: _12  and  _13
REMARK    7  A    between atoms: _12  and  _15
REMARK    8  A    between atoms: _15  and  _16
REMARK    9  A    between atoms: _16  and  _17
REMARK   10  A    between atoms: _17  and  _18
REMARK   11  A    between atoms: _27  and  _29
REMARK   12  A    between atoms: _29  and  _30
REMARK   13  A    between atoms: _29  and  _32
REMARK   14  A    between atoms: _32  and  _33
REMARK   15  A    between atoms: _43  and  _45
REMARK   16  A    between atoms: _45  and  _46
REMARK   17  A    between atoms: _45  and  _48
REMARK   18  A    between atoms: _48  and  _49
REMARK   19  A    between atoms: _52  and  _54
REMARK   20  A    between atoms: _54  and  _55
REMARK   21  A    between atoms: _54  and  _57
REMARK   22  A    between atoms: _57  and  _58
REMARK   23  A    between atoms: _61  and  _63
REMARK   24  A    between atoms: _63  and  _64
REMARK   25  A    between atoms: _63  and  _66
REMARK   26  A    between atoms: _66  and  _67
REMARK   27  A    between atoms: _69  and  _71
REMARK   28  A    between atoms: _71  and  _72
REMARK   29  A    between atoms: _71  and  _74
REMARK   30  A    between atoms: _74  and  _75
REMARK   31  A    between atoms: _78  and  _80
REMARK   32  A    between atoms: _80  and  _81
REMARK   33  A    between atoms: _83  and  _85
REMARK   34  A    between atoms: _85  and  _86
REMARK   35  A    between atoms: _85  and  _88
REMARK   36  A    between atoms: _88  and  _89
REMARK   37  A    between atoms: _94  and  _96
REMARK   38  A    between atoms: _96  and  _97
REMARK   39  A    between atoms: _99  and  _101
REMARK   40  A    between atoms: _101  and  _102
REMARK   41  A    between atoms: _101  and  _104
REMARK   42  A    between atoms: _104  and  _105
REMARK   43  A    between atoms: _105  and  _106
REMARK   44  A    between atoms: _108  and  _110
REMARK   45  A    between atoms: _110  and  _111
REMARK   46  A    between atoms: _110  and  _113
REMARK   47  A    between atoms: _113  and  _114
REMARK   48  A    between atoms: _119  and  _120
REMARK   49  A    between atoms: _122  and  _124
REMARK   50  A    between atoms: _124  and  _125
REMARK   51  A    between atoms: _124  and  _127
REMARK   52  A    between atoms: _127  and  _128
REMARK   53  A    between atoms: _131  and  _133
REMARK   54  A    between atoms: _133  and  _134
REMARK   55  A    between atoms: _133  and  _136
REMARK   56  A    between atoms: _136  and  _137
REMARK   57  A    between atoms: _139  and  _141
REMARK   58  A    between atoms: _141  and  _142
REMARK   59  A    between atoms: _141  and  _144
REMARK   60  A    between atoms: _144  and  _145
REMARK   61  A    between atoms: _148  and  _150
REMARK   62  A    between atoms: _150  and  _151
REMARK   63  A    between atoms: _150  and  _153
REMARK   64  A    between atoms: _153  and  _154
REMARK   65  A    between atoms: _154  and  _155
REMARK   66  A    between atoms: _155  and  _156
REMARK   67  A    between atoms: _165  and  _167
REMARK   68  A    between atoms: _167  and  _168
REMARK   69  A    between atoms: _167  and  _170
REMARK   70  A    between atoms: _170  and  _171
REMARK   71  A    between atoms: _177  and  _179
REMARK   72  A    between atoms: _179  and  _180
REMARK   73  A    between atoms: _179  and  _182
REMARK   74  A    between atoms: _182  and  _183
REMARK   75  A    between atoms: _193  and  _195
REMARK   76  A    between atoms: _195  and  _196
REMARK   77  A    between atoms: _195  and  _198
REMARK   78  A    between atoms: _201  and  _203
REMARK   79  A    between atoms: _203  and  _204
REMARK   80  A    between atoms: _203  and  _206
REMARK   81  A    between atoms: _206  and  _207
REMARK   82  A    between atoms: _210  and  _212
REMARK   83  A    between atoms: _212  and  _213
REMARK   84  A    between atoms: _215  and  _217
REMARK   85  A    between atoms: _217  and  _218
REMARK   86  A    between atoms: _217  and  _220
REMARK   87  A    between atoms: _220  and  _221
REMARK   88  A    between atoms: _223  and  _225
REMARK   89  A    between atoms: _225  and  _226
REMARK   90  A    between atoms: _225  and  _228
REMARK   91  A    between atoms: _228  and  _229
REMARK   92  A    between atoms: _239  and  _241
REMARK   93  A    between atoms: _241  and  _242
REMARK   94  A    between atoms: _241  and  _244
REMARK   95  A    between atoms: _244  and  _245
REMARK   96  A    between atoms: _247  and  _249
REMARK   97  A    between atoms: _249  and  _250
REMARK   98  A    between atoms: _249  and  _252
REMARK   99  A    between atoms: _252  and  _253
REMARK  100  A    between atoms: _256  and  _258
REMARK  101  A    between atoms: _258  and  _259
REMARK  102  A    between atoms: _262  and  _264
REMARK  103  A    between atoms: _264  and  _265
REMARK  104  A    between atoms: _264  and  _267
REMARK  105  A    between atoms: _267  and  _268
REMARK  106  A    between atoms: _270  and  _272
REMARK  107  A    between atoms: _272  and  _273
REMARK  108  A    between atoms: _272  and  _275
REMARK  109  A    between atoms: _275  and  _276
REMARK  110  A    between atoms: _276  and  _277
REMARK  111  A    between atoms: _281  and  _282
REMARK  112  A    between atoms: _287  and  _289
REMARK  113  A    between atoms: _289  and  _290
REMARK  114  A    between atoms: _289  and  _292
REMARK  115  A    between atoms: _292  and  _293
REMARK  116  A    between atoms: _295  and  _297
REMARK  117  A    between atoms: _297  and  _298
REMARK  118  A    between atoms: _297  and  _300
REMARK  119  A    between atoms: _300  and  _301
REMARK  120  A    between atoms: _301  and  _302
REMARK  121  A    between atoms: _307  and  _309
REMARK  122  A    between atoms: _309  and  _310
REMARK  123  A    between atoms: _309  and  _312
REMARK  124  A    between atoms: _312  and  _313
REMARK  125  A    between atoms: _316  and  _318
REMARK  126  A    between atoms: _318  and  _319
REMARK  127  A    between atoms: _318  and  _321
REMARK  128  A    between atoms: _321  and  _322
REMARK  129  A    between atoms: _325  and  _327
REMARK  130  A    between atoms: _327  and  _328
REMARK  131  A    between atoms: _327  and  _330
REMARK  132  A    between atoms: _330  and  _331
REMARK  133  A    between atoms: _336  and  _337
REMARK  134  A    between atoms: _339  and  _341
REMARK  135  A    between atoms: _341  and  _342
REMARK  136  A    between atoms: _341  and  _344
REMARK  137  A    between atoms: _344  and  _345
REMARK  138  A    between atoms: _351  and  _353
REMARK  139  A    between atoms: _353  and  _354
REMARK  140  A    between atoms: _353  and  _356
REMARK  141  A    between atoms: _356  and  _357
REMARK  142  A    between atoms: _357  and  _358
REMARK                            x       y       z     vdW  Elec       q    Type
REMARK                         _______ _______ _______ _____ _____    ______ ____
ROOT
ATOM      1  C   ASP A   1      -1.501  27.609   1.222  0.00  0.00    +0.239 C 
ATOM      2  N   LEU A   2      -0.480  27.906   2.026  0.00  0.00    -0.298 N 
ATOM      3  H   LEU A   2       0.480  27.979   1.633  0.00  0.00    +0.150 HD
ATOM      4  O   ASP A   1      -2.644  27.406   1.640  0.00  0.00    -0.274 OA
ENDROOT
BRANCH   1   5
ATOM      5  CA  ASP A   1      -1.203  27.510  -0.277  0.00  0.00    +0.156 C 
BRANCH   5   6
ATOM      6  N   ASP A   1       0.166  27.889  -0.566  0.00  0.00    -0.238 NA
ATOM      7  H   ASP A   1       0.886  27.149  -0.686  0.00  0.00    +0.142 HD
ENDBRANCH   5   6
BRANCH   5   8
ATOM      8  CB  ASP A   1      -1.475  26.075  -0.789  0.00  0.00    +0.140 C 
BRANCH   8   9
ATOM      9  CG  ASP A   1      -2.961  25.737  -0.911  0.00  0.00    +0.367 C 
ATOM     10  OD2 ASP A   1      -3.820  26.649  -0.789  0.00  0.00    -0.246 OA
ATOM     11  OD1 ASP A   1      -3.274  24.522  -1.135  0.00  0.00    -0.246 OA
ENDBRANCH   8   9
ENDBRANCH   5   8
ENDBRANCH   1   5
BRANCH   2  12
ATOM     12  CA  LEU A   2      -0.695  28.131   3.458  0.00  0.00    +0.137 C 
BRANCH  12  13
ATOM     13  C   LEU A   2      -0.662  29.603   3.869  0.00  0.00    +0.227 C 
ATOM     14  O   LEU A   2      -1.439  30.005   4.738  0.00  0.00    -0.286 OA
ENDBRANCH  12  13
BRANCH  12  15
ATOM     15  CB  LEU A   2       0.356  27.367   4.269  0.00  0.00    +0.028 C 
BRANCH  15  16
ATOM     16  CG  LEU A   2       0.381  25.844   4.102  0.00  0.00    +0.002 C 
ATOM     17  CD2 LEU A   2       1.497  25.238   4.992  0.00  0.00    +0.000 C 
ATOM     18  CD1 LEU A   2      -0.941  25.231   4.447  0.00  0.00    +0.000 C 
ENDBRANCH  15  16
ENDBRANCH  12  15
ENDBRANCH   2  12
TORSDOF 8
REMARK  Name = ../refined-set-2016/3dri/3dri_pocket.pdb
REMARK  142 active torsions:
REMARK  status: ('A' for Active; 'I' for Inactive)
REMARK    1  A    between atoms: _1  and  _3
REMARK    2  A    between atoms: _3  and  _4
REMARK    3  A    between atoms: _3  and  _6
REMARK    4  A    between atoms: _6  and  _7
REMARK    5  A    between atoms: _10  and  _12
REMARK    6  A    between atoms: _12  and  _13
REMARK    7  A    between atoms: _12  and  _15
REMARK    8  A    between atoms: _15  and  _16
REMARK    9  A    between atoms: _16  and  _17
REMARK   10  A    between atoms: _17  and  _18
REMARK   11  A    between atoms: _27  and  _29
REMARK   12  A    between atoms: _29  and  _30
REMARK   13  A    between atoms: _29  and  _32
REMARK   14  A    between atoms: _32  and  _33
REMARK   15  A    between atoms: _43  and  _45
REMARK   16  A    between atoms: _45  and  _46
REMARK   17  A    between atoms: _45  and  _48
REMARK   18  A    between atoms: _48  and  _49
REMARK   19  A    between atoms: _52  and  _54
REMARK   20  A    between atoms: _54  and  _55
REMARK   21  A    between atoms: _54  and  _57
REMARK   22  A    between atoms: _57  and  _58
REMARK   23  A    between atoms: _61  and  _63
REMARK   24  A    between atoms: _63  and  _64
REMARK   25  A    between atoms: _63  and  _66
REMARK   26  A    between atoms: _66  and  _67
REMARK   27  A    between atoms: _69  and  _71
REMARK   28  A    between atoms: _71  and  _72
REMARK   29  A    between atoms: _71  and  _74
REMARK   30  A    between atoms: _74  and  _75
REMARK   31  A    between atoms: _78  and  _80
REMARK   32  A    between atoms: _80  and  _81
REMARK   33  A    between atoms: _83  and  _85
REMARK   34  A    between atoms: _85  and  _86
REMARK   35  A    between atoms: _85  and  _88
REMARK   36  A    between atoms: _88  and  _89
REMARK   37  A    between atoms: _94  and  _96
REMARK   38  A    between atoms: _96  and  _97
REMARK   39  A    between atoms: _99  and  _101
REMARK   40  A    between atoms: _101  and  _102
REMARK   41  A    between atoms: _101  and  _104
REMARK   42  A    between atoms: _104  and  _105
REMARK   43  A    between atoms: _105  and  _106
REMARK   44  A    between atoms: _108  and  _110
REMARK   45  A    between atoms: _110  and  _111
REMARK   46  A    between atoms: _110  and  _113
REMARK   47  A    between atoms: _113  and  _114
REMARK   48  A    between atoms: _119  and  _120
REMARK   49  A    between atoms: _122  and  _124
REMARK   50  A    between atoms: _124  and  _125
REMARK   51  A    between atoms: _124  and  _127
REMARK   52  A    between atoms: _127  and  _128
REMARK   53  A    between atoms: _131  and  _133
REMARK   54  A    between atoms: _133  and  _134
REMARK   55  A    between atoms: _133  and  _136
REMARK   56  A    between atoms: _136  and  _137
REMARK   57  A    between atoms: _139  and  _141
REMARK   58  A    between atoms: _141  and  _142
REMARK   59  A    between atoms: _141  and  _144
REMARK   60  A    between atoms: _144  and  _145
REMARK   61  A    between atoms: _148  and  _150
REMARK   62  A    between atoms: _150  and  _151
REMARK   63  A    between atoms: _150  and  _153
REMARK   64  A    between atoms: _153  and  _154
REMARK   65  A    between atoms: _154  and  _155
REMARK   66  A    between atoms: _155  and  _156
REMARK   67  A    between atoms: _165  and  _167
REMARK   68  A    between atoms: _167  and  _168
REMARK   69  A    between atoms: _167  and  _170
REMARK   70  A    between atoms: _170  and  _171
REMARK   71  A    between atoms: _177  and  _179
REMARK   72  A    between atoms: _179  and  _180
REMARK   73  A    between atoms: _179  and  _182
REMARK   74  A    between atoms: _182  and  _183
REMARK   75  A    between atoms: _193  and  _195
REMARK   76  A    between atoms: _195  and  _196
REMARK   77  A    between atoms: _195  and  _198
REMARK   78  A    between atoms: _201  and  _203
REMARK   79  A    between atoms: _203  and  _204
REMARK   80  A    between atoms: _203  and  _206
REMARK   81  A    between atoms: _206  and  _207
REMARK   82  A    between atoms: _210  and  _212
REMARK   83  A    between atoms: _212  and  _213
REMARK   84  A    between atoms: _215  and  _217
REMARK   85  A    between atoms: _217  and  _218
REMARK   86  A    between atoms: _217  and  _220
REMARK   87  A    between atoms: _220  and  _221
REMARK   88  A    between atoms: _223  and  _225
REMARK   89  A    between atoms: _225  and  _226
REMARK   90  A    between atoms: _225  and  _228
REMARK   91  A    between atoms: _228  and  _229
REMARK   92  A    between atoms: _239  and  _241
REMARK   93  A    between atoms: _241  and  _242
REMARK   94  A    between atoms: _241  and  _244
REMARK   95  A    between atoms: _244  and  _245
REMARK   96  A    between atoms: _247  and  _249
REMARK   97  A    between atoms: _249  and  _250
REMARK   98  A    between atoms: _249  and  _252
REMARK   99  A    between atoms: _252  and  _253
REMARK  100  A    between atoms: _256  and  _258
REMARK  101  A    between atoms: _258  and  _259
REMARK  102  A    between atoms: _262  and  _264
REMARK  103  A    between atoms: _264  and  _265
REMARK  104  A    between atoms: _264  and  _267
REMARK  105  A    between atoms: _267  and  _268
REMARK  106  A    between atoms: _270  and  _272
REMARK  107  A    between atoms: _272  and  _273
REMARK  108  A    between atoms: _272  and  _275
REMARK  109  A    between atoms: _275  and  _276
REMARK  110  A    between atoms: _276  and  _277
REMARK  111  A    between atoms: _281  and  _282
REMARK  112  A    between atoms: _287  and  _289
REMARK  113  A    between atoms: _289  and  _290
REMARK  114  A    between atoms: _289  and  _292
REMARK  115  A    between atoms: _292  and  _293
REMARK  116  A    between atoms: _295  and  _297
REMARK  117  A    between atoms: _297  and  _298
REMARK  118  A    between atoms: _297  and  _300
REMARK  119  A    between atoms: _300  and  _301
REMARK  120  A    between atoms: _301  and  _302
REMARK  121  A    between atoms: _307  and  _309
REMARK  122  A    between atoms: _309  and  _310
REMARK  123  A    between atoms: _309  and  _312
REMARK  124  A    between atoms: _312  and  _313
REMARK  125  A    between atoms: _316  and  _318
REMARK  126  A    between atoms: _318  and  _319
REMARK  127  A    between atoms: _318  and  _321
REMARK  128  A    between atoms: _321  and  _322
REMARK  129  A    between atoms: _325  and  _327
REMARK  130  A    between atoms: _327  and  _328
REMARK  131  A    between atoms: _327  and  _330
REMARK  132  A    between atoms: _330  and  _331
REMARK  133  A    between atoms: _336  and  _337
REMARK  134  A    between atoms: _339  and  _341
REMARK  135  A    between atoms: _341  and  _342
REMARK  136  A    between atoms: _341  and  _344
REMARK  137  A    between atoms: _344  and  _345
REMARK  138  A    between atoms: _351  and  _353
REMARK  139  A    between atoms: _353  and  _354
REMARK  140  A    between atoms: _353  and  _356
REMARK  141  A    between atoms: _356  and  _357
REMARK  142  A    between atoms: _357  and  _358
REMARK                            x       y       z     vdW  Elec       q    Type
REMARK                         _______ _______ _______ _____ _____    ______ ____
ROOT
ATOM      1  CG  TYR A   1      -5.766  26.235   3.840  0.00  0.00    -0.020 A 
ATOM      2  CD2 TYR A   1      -7.153  26.233   3.860  0.00  0.00    -0.001 A 
ATOM      3  CE2 TYR A   1      -7.871  25.077   3.560  0.00  0.00    +0.036 A 
ATOM      4  CZ  TYR A   1      -7.204  23.930   3.211  0.00  0.00    +0.134 A 
ATOM      5  CE1 TYR A   1      -5.817  23.903   3.168  0.00  0.00    +0.036 A 
ATOM      6  CD1 TYR A   1      -5.108  25.056   3.483  0.00  0.00    -0.001 A 
ENDROOT
BRANCH   4   7
ATOM      7  OH  TYR A   1      -7.930  22.800   2.912  0.00  0.00    -0.506 OA
ATOM      8  HH  TYR A   1      -8.896  22.999   2.993  0.00  0.00    +0.292 HD
ENDBRANCH   4   7
BRANCH   1   9
ATOM      9  CB  TYR A   1      -4.962  27.465   4.183  0.00  0.00    +0.051 C 
BRANCH   9  10
ATOM     10  CA  TYR A   1      -5.768  28.702   4.571  0.00  0.00    +0.137 C 
BRANCH  10  11
ATOM     11  N   TYR A   1      -6.321  29.317   3.362  0.00  0.00    -0.239 NA
ATOM     12  H   TYR A   1      -5.843  29.138   2.456  0.00  0.00    +0.142 HD
ENDBRANCH  10  11
BRANCH  10  13
ATOM     13  C   TYR A   1      -4.849  29.638   5.368  0.00  0.00    +0.224 C 
ATOM     14  O   TYR A   1      -4.270  29.227   6.350  0.00  0.00    -0.287 OA
ENDBRANCH  10  13
ENDBRANCH   9  10
ENDBRANCH   1   9
TORSDOF 5
REMARK  Name = ../refined-set-2016/3dri/3dri_pocket.pdb
REMARK  142 active torsions:
REMARK  status: ('A' for Active; 'I' for Inactive)
REMARK    1  A    between atoms: _1  and  _3
REMARK    2  A    between atoms: _3  and  _4
REMARK    3  A    between atoms: _3  and  _6
REMARK    4  A    between atoms: _6  and  _7
REMARK    5  A    between atoms: _10  and  _12
REMARK    6  A    between atoms: _12  and  _13
REMARK    7  A    between atoms: _12  and  _15
REMARK    8  A    between atoms: _15  and  _16
REMARK    9  A    between atoms: _16  and  _17
REMARK   10  A    between atoms: _17  and  _18
REMARK   11  A    between atoms: _27  and  _29
REMARK   12  A    between atoms: _29  and  _30
REMARK   13  A    between atoms: _29  and  _32
REMARK   14  A    between atoms: _32  and  _33
REMARK   15  A    between atoms: _43  and  _45
REMARK   16  A    between atoms: _45  and  _46
REMARK   17  A    between atoms: _45  and  _48
REMARK   18  A    between atoms: _48  and  _49
REMARK   19  A    between atoms: _52  and  _54
REMARK   20  A    between atoms: _54  and  _55
REMARK   21  A    between atoms: _54  and  _57
REMARK   22  A    between atoms: _57  and  _58
REMARK   23  A    between atoms: _61  and  _63
REMARK   24  A    between atoms: _63  and  _64
REMARK   25  A    between atoms: _63  and  _66
REMARK   26  A    between atoms: _66  and  _67
REMARK   27  A    between atoms: _69  and  _71
REMARK   28  A    between atoms: _71  and  _72
REMARK   29  A    between atoms: _71  and  _74
REMARK   30  A    between atoms: _74  and  _75
REMARK   31  A    between atoms: _78  and  _80
REMARK   32  A    between atoms: _80  and  _81
REMARK   33  A    between atoms: _83  and  _85
REMARK   34  A    between atoms: _85  and  _86
REMARK   35  A    between atoms: _85  and  _88
REMARK   36  A    between atoms: _88  and  _89
REMARK   37  A    between atoms: _94  and  _96
REMARK   38  A    between atoms: _96  and  _97
REMARK   39  A    between atoms: _99  and  _101
REMARK   40  A    between atoms: _101  and  _102
REMARK   41  A    between atoms: _101  and  _104
REMARK   42  A    between atoms: _104  and  _105
REMARK   43  A    between atoms: _105  and  _106
REMARK   44  A    between atoms: _108  and  _110
REMARK   45  A    between atoms: _110  and  _111
REMARK   46  A    between atoms: _110  and  _113
REMARK   47  A    between atoms: _113  and  _114
REMARK   48  A    between atoms: _119  and  _120
REMARK   49  A    between atoms: _122  and  _124
REMARK   50  A    between atoms: _124  and  _125
REMARK   51  A    between atoms: _124  and  _127
REMARK   52  A    between atoms: _127  and  _128
REMARK   53  A    between atoms: _131  and  _133
REMARK   54  A    between atoms: _133  and  _134
REMARK   55  A    between atoms: _133  and  _136
REMARK   56  A    between atoms: _136  and  _137
REMARK   57  A    between atoms: _139  and  _141
REMARK   58  A    between atoms: _141  and  _142
REMARK   59  A    between atoms: _141  and  _144
REMARK   60  A    between atoms: _144  and  _145
REMARK   61  A    between atoms: _148  and  _150
REMARK   62  A    between atoms: _150  and  _151
REMARK   63  A    between atoms: _150  and  _153
REMARK   64  A    between atoms: _153  and  _154
REMARK   65  A    between atoms: _154  and  _155
REMARK   66  A    between atoms: _155  and  _156
REMARK   67  A    between atoms: _165  and  _167
REMARK   68  A    between atoms: _167  and  _168
REMARK   69  A    between atoms: _167  and  _170
REMARK   70  A    between atoms: _170  and  _171
REMARK   71  A    between atoms: _177  and  _179
REMARK   72  A    between atoms: _179  and  _180
REMARK   73  A    between atoms: _179  and  _182
REMARK   74  A    between atoms: _182  and  _183
REMARK   75  A    between atoms: _193  and  _195
REMARK   76  A    between atoms: _195  and  _196
REMARK   77  A    between atoms: _195  and  _198
REMARK   78  A    between atoms: _201  and  _203
REMARK   79  A    between atoms: _203  and  _204
REMARK   80  A    between atoms: _203  and  _206
REMARK   81  A    between atoms: _206  and  _207
REMARK   82  A    between atoms: _210  and  _212
REMARK   83  A    between atoms: _212  and  _213
REMARK   84  A    between atoms: _215  and  _217
REMARK   85  A    between atoms: _217  and  _218
REMARK   86  A    between atoms: _217  and  _220
REMARK   87  A    between atoms: _220  and  _221
REMARK   88  A    between atoms: _223  and  _225
REMARK   89  A    between atoms: _225  and  _226
REMARK   90  A    between atoms: _225  and  _228
REMARK   91  A    between atoms: _228  and  _229
REMARK   92  A    between atoms: _239  and  _241
REMARK   93  A    between atoms: _241  and  _242
REMARK   94  A    between atoms: _241  and  _244
REMARK   95  A    between atoms: _244  and  _245
REMARK   96  A    between atoms: _247  and  _249
REMARK   97  A    between atoms: _249  and  _250
REMARK   98  A    between atoms: _249  and  _252
REMARK   99  A    between atoms: _252  and  _253
REMARK  100  A    between atoms: _256  and  _258
REMARK  101  A    between atoms: _258  and  _259
REMARK  102  A    between atoms: _262  and  _264
REMARK  103  A    between atoms: _264  and  _265
REMARK  104  A    between atoms: _264  and  _267
REMARK  105  A    between atoms: _267  and  _268
REMARK  106  A    between atoms: _270  and  _272
REMARK  107  A    between atoms: _272  and  _273
REMARK  108  A    between atoms: _272  and  _275
REMARK  109  A    between atoms: _275  and  _276
REMARK  110  A    between atoms: _276  and  _277
REMARK  111  A    between atoms: _281  and  _282
REMARK  112  A    between atoms: _287  and  _289
REMARK  113  A    between atoms: _289  and  _290
REMARK  114  A    between atoms: _289  and  _292
REMARK  115  A    between atoms: _292  and  _293
REMARK  116  A    between atoms: _295  and  _297
REMARK  117  A    between atoms: _297  and  _298
REMARK  118  A    between atoms: _297  and  _300
REMARK  119  A    between atoms: _300  and  _301
REMARK  120  A    between atoms: _301  and  _302
REMARK  121  A    between atoms: _307  and  _309
REMARK  122  A    between atoms: _309  and  _310
REMARK  123  A    between atoms: _309  and  _312
REMARK  124  A    between atoms: _312  and  _313
REMARK  125  A    between atoms: _316  and  _318
REMARK  126  A    between atoms: _318  and  _319
REMARK  127  A    between atoms: _318  and  _321
REMARK  128  A    between atoms: _321  and  _322
REMARK  129  A    between atoms: _325  and  _327
REMARK  130  A    between atoms: _327  and  _328
REMARK  131  A    between atoms: _327  and  _330
REMARK  132  A    between atoms: _330  and  _331
REMARK  133  A    between atoms: _336  and  _337
REMARK  134  A    between atoms: _339  and  _341
REMARK  135  A    between atoms: _341  and  _342
REMARK  136  A    between atoms: _341  and  _344
REMARK  137  A    between atoms: _344  and  _345
REMARK  138  A    between atoms: _351  and  _353
REMARK  139  A    between atoms: _353  and  _354
REMARK  140  A    between atoms: _353  and  _356
REMARK  141  A    between atoms: _356  and  _357
REMARK  142  A    between atoms: _357  and  _358
REMARK                            x       y       z     vdW  Elec       q    Type
REMARK                         _______ _______ _______ _____ _____    ______ ____
ROOT
ATOM      1  CB  PHE A   1      -6.092  30.463   9.903  0.00  0.00    +0.051 C 
ENDROOT
BRANCH   1   2
ATOM      2  CG  PHE A   1      -6.127  29.064   9.373  0.00  0.00    -0.020 A 
ATOM      3  CD2 PHE A   1      -5.363  28.081   9.998  0.00  0.00    -0.004 A 
ATOM      4  CE2 PHE A   1      -5.389  26.767   9.545  0.00  0.00    -0.000 A 
ATOM      5  CZ  PHE A   1      -6.179  26.426   8.492  0.00  0.00    -0.000 A 
ATOM      6  CE1 PHE A   1      -6.952  27.384   7.859  0.00  0.00    -0.000 A 
ATOM      7  CD1 PHE A   1      -6.926  28.702   8.309  0.00  0.00    -0.004 A 
ENDBRANCH   1   2
BRANCH   1   8
ATOM      8  CA  PHE A   1      -6.199  31.569   8.830  0.00  0.00    +0.137 C 
BRANCH   8   9
ATOM      9  N   PHE A   1      -5.097  31.487   7.853  0.00  0.00    -0.239 NA
ATOM     10  H   PHE A   1      -4.365  30.759   7.980  0.00  0.00    +0.142 HD
ENDBRANCH   8   9
BRANCH   8  11
ATOM     11  C   PHE A   1      -6.325  32.884   9.590  0.00  0.00    +0.224 C 
ATOM     12  O   PHE A   1      -7.427  33.248   9.994  0.00  0.00    -0.287 OA
ENDBRANCH   8  11
ENDBRANCH   1   8
TORSDOF 4
REMARK  Name = ../refined-set-2016/3dri/3dri_pocket.pdb
REMARK  142 active torsions:
REMARK  status: ('A' for Active; 'I' for Inactive)
REMARK    1  A    between atoms: _1  and  _3
REMARK    2  A    between atoms: _3  and  _4
REMARK    3  A    between atoms: _3  and  _6
REMARK    4  A    between atoms: _6  and  _7
REMARK    5  A    between atoms: _10  and  _12
REMARK    6  A    between atoms: _12  and  _13
REMARK    7  A    between atoms: _12  and  _15
REMARK    8  A    between atoms: _15  and  _16
REMARK    9  A    between atoms: _16  and  _17
REMARK   10  A    between atoms: _17  and  _18
REMARK   11  A    between atoms: _27  and  _29
REMARK   12  A    between atoms: _29  and  _30
REMARK   13  A    between atoms: _29  and  _32
REMARK   14  A    between atoms: _32  and  _33
REMARK   15  A    between atoms: _43  and  _45
REMARK   16  A    between atoms: _45  and  _46
REMARK   17  A    between atoms: _45  and  _48
REMARK   18  A    between atoms: _48  and  _49
REMARK   19  A    between atoms: _52  and  _54
REMARK   20  A    between atoms: _54  and  _55
REMARK   21  A    between atoms: _54  and  _57
REMARK   22  A    between atoms: _57  and  _58
REMARK   23  A    between atoms: _61  and  _63
REMARK   24  A    between atoms: _63  and  _64
REMARK   25  A    between atoms: _63  and  _66
REMARK   26  A    between atoms: _66  and  _67
REMARK   27  A    between atoms: _69  and  _71
REMARK   28  A    between atoms: _71  and  _72
REMARK   29  A    between atoms: _71  and  _74
REMARK   30  A    between atoms: _74  and  _75
REMARK   31  A    between atoms: _78  and  _80
REMARK   32  A    between atoms: _80  and  _81
REMARK   33  A    between atoms: _83  and  _85
REMARK   34  A    between atoms: _85  and  _86
REMARK   35  A    between atoms: _85  and  _88
REMARK   36  A    between atoms: _88  and  _89
REMARK   37  A    between atoms: _94  and  _96
REMARK   38  A    between atoms: _96  and  _97
REMARK   39  A    between atoms: _99  and  _101
REMARK   40  A    between atoms: _101  and  _102
REMARK   41  A    between atoms: _101  and  _104
REMARK   42  A    between atoms: _104  and  _105
REMARK   43  A    between atoms: _105  and  _106
REMARK   44  A    between atoms: _108  and  _110
REMARK   45  A    between atoms: _110  and  _111
REMARK   46  A    between atoms: _110  and  _113
REMARK   47  A    between atoms: _113  and  _114
REMARK   48  A    between atoms: _119  and  _120
REMARK   49  A    between atoms: _122  and  _124
REMARK   50  A    between atoms: _124  and  _125
REMARK   51  A    between atoms: _124  and  _127
REMARK   52  A    between atoms: _127  and  _128
REMARK   53  A    between atoms: _131  and  _133
REMARK   54  A    between atoms: _133  and  _134
REMARK   55  A    between atoms: _133  and  _136
REMARK   56  A    between atoms: _136  and  _137
REMARK   57  A    between atoms: _139  and  _141
REMARK   58  A    between atoms: _141  and  _142
REMARK   59  A    between atoms: _141  and  _144
REMARK   60  A    between atoms: _144  and  _145
REMARK   61  A    between atoms: _148  and  _150
REMARK   62  A    between atoms: _150  and  _151
REMARK   63  A    between atoms: _150  and  _153
REMARK   64  A    between atoms: _153  and  _154
REMARK   65  A    between atoms: _154  and  _155
REMARK   66  A    between atoms: _155  and  _156
REMARK   67  A    between atoms: _165  and  _167
REMARK   68  A    between atoms: _167  and  _168
REMARK   69  A    between atoms: _167  and  _170
REMARK   70  A    between atoms: _170  and  _171
REMARK   71  A    between atoms: _177  and  _179
REMARK   72  A    between atoms: _179  and  _180
REMARK   73  A    between atoms: _179  and  _182
REMARK   74  A    between atoms: _182  and  _183
REMARK   75  A    between atoms: _193  and  _195
REMARK   76  A    between atoms: _195  and  _196
REMARK   77  A    between atoms: _195  and  _198
REMARK   78  A    between atoms: _201  and  _203
REMARK   79  A    between atoms: _203  and  _204
REMARK   80  A    between atoms: _203  and  _206
REMARK   81  A    between atoms: _206  and  _207
REMARK   82  A    between atoms: _210  and  _212
REMARK   83  A    between atoms: _212  and  _213
REMARK   84  A    between atoms: _215  and  _217
REMARK   85  A    between atoms: _217  and  _218
REMARK   86  A    between atoms: _217  and  _220
REMARK   87  A    between atoms: _220  and  _221
REMARK   88  A    between atoms: _223  and  _225
REMARK   89  A    between atoms: _225  and  _226
REMARK   90  A    between atoms: _225  and  _228
REMARK   91  A    between atoms: _228  and  _229
REMARK   92  A    between atoms: _239  and  _241
REMARK   93  A    between atoms: _241  and  _242
REMARK   94  A    between atoms: _241  and  _244
REMARK   95  A    between atoms: _244  and  _245
REMARK   96  A    between atoms: _247  and  _249
REMARK   97  A    between atoms: _249  and  _250
REMARK   98  A    between atoms: _249  and  _252
REMARK   99  A    between atoms: _252  and  _253
REMARK  100  A    between atoms: _256  and  _258
REMARK  101  A    between atoms: _258  and  _259
REMARK  102  A    between atoms: _262  and  _264
REMARK  103  A    between atoms: _264  and  _265
REMARK  104  A    between atoms: _264  and  _267
REMARK  105  A    between atoms: _267  and  _268
REMARK  106  A    between atoms: _270  and  _272
REMARK  107  A    between atoms: _272  and  _273
REMARK  108  A    between atoms: _272  and  _275
REMARK  109  A    between atoms: _275  and  _276
REMARK  110  A    between atoms: _276  and  _277
REMARK  111  A    between atoms: _281  and  _282
REMARK  112  A    between atoms: _287  and  _289
REMARK  113  A    between atoms: _289  and  _290
REMARK  114  A    between atoms: _289  and  _292
REMARK  115  A    between atoms: _292  and  _293
REMARK  116  A    between atoms: _295  and  _297
REMARK  117  A    between atoms: _297  and  _298
REMARK  118  A    between atoms: _297  and  _300
REMARK  119  A    between atoms: _300  and  _301
REMARK  120  A    between atoms: _301  and  _302
REMARK  121  A    between atoms: _307  and  _309
REMARK  122  A    between atoms: _309  and  _310
REMARK  123  A    between atoms: _309  and  _312
REMARK  124  A    between atoms: _312  and  _313
REMARK  125  A    between atoms: _316  and  _318
REMARK  126  A    between atoms: _318  and  _319
REMARK  127  A    between atoms: _318  and  _321
REMARK  128  A    between atoms: _321  and  _322
REMARK  129  A    between atoms: _325  and  _327
REMARK  130  A    between atoms: _327  and  _328
REMARK  131  A    between atoms: _327  and  _330
REMARK  132  A    between atoms: _330  and  _331
REMARK  133  A    between atoms: _336  and  _337
REMARK  134  A    between atoms: _339  and  _341
REMARK  135  A    between atoms: _341  and  _342
REMARK  136  A    between atoms: _341  and  _344
REMARK  137  A    between atoms: _344  and  _345
REMARK  138  A    between atoms: _351  and  _353
REMARK  139  A    between atoms: _353  and  _354
REMARK  140  A    between atoms: _353  and  _356
REMARK  141  A    between atoms: _356  and  _357
REMARK  142  A    between atoms: _357  and  _358
REMARK                            x       y       z     vdW  Elec       q    Type
REMARK                         _______ _______ _______ _____ _____    ______ ____
ROOT
ATOM      1  CA  MET A   1       7.648  15.884  15.367  0.00  0.00    +0.134 C 
ENDROOT
BRANCH   1   2
ATOM      2  N   MET A   1       7.906  17.147  14.716  0.00  0.00    -0.239 NA
ATOM      3  H   MET A   1       8.024  17.200  13.684  0.00  0.00    +0.142 HD
ENDBRANCH   1   2
BRANCH   1   4
ATOM      4  C   MET A   1       8.512  14.756  14.797  0.00  0.00    +0.224 C 
ATOM      5  O   MET A   1       9.150  14.904  13.734  0.00  0.00    -0.287 OA
ENDBRANCH   1   4
BRANCH   1   6
ATOM      6  CB  MET A   1       6.140  15.585  15.367  0.00  0.00    +0.037 C 
BRANCH   6   7
ATOM      7  CG  MET A   1       5.623  14.600  14.380  0.00  0.00    +0.059 C 
BRANCH   7   8
ATOM      8  SD  MET A   1       3.854  14.222  14.660  0.00  0.00    -0.139 S 
ATOM      9  CE  MET A   1       3.494  13.343  13.134  0.00  0.00    +0.069 C 
ENDBRANCH   7   8
ENDBRANCH   6   7
ENDBRANCH   1   6
TORSDOF 5
REMARK  Name = ../refined-set-2016/3dri/3dri_pocket.pdb
REMARK  142 active torsions:
REMARK  status: ('A' for Active; 'I' for Inactive)
REMARK    1  A    between atoms: _1  and  _3
REMARK    2  A    between atoms: _3  and  _4
REMARK    3  A    between atoms: _3  and  _6
REMARK    4  A    between atoms: _6  and  _7
REMARK    5  A    between atoms: _10  and  _12
REMARK    6  A    between atoms: _12  and  _13
REMARK    7  A    between atoms: _12  and  _15
REMARK    8  A    between atoms: _15  and  _16
REMARK    9  A    between atoms: _16  and  _17
REMARK   10  A    between atoms: _17  and  _18
REMARK   11  A    between atoms: _27  and  _29
REMARK   12  A    between atoms: _29  and  _30
REMARK   13  A    between atoms: _29  and  _32
REMARK   14  A    between atoms: _32  and  _33
REMARK   15  A    between atoms: _43  and  _45
REMARK   16  A    between atoms: _45  and  _46
REMARK   17  A    between atoms: _45  and  _48
REMARK   18  A    between atoms: _48  and  _49
REMARK   19  A    between atoms: _52  and  _54
REMARK   20  A    between atoms: _54  and  _55
REMARK   21  A    between atoms: _54  and  _57
REMARK   22  A    between atoms: _57  and  _58
REMARK   23  A    between atoms: _61  and  _63
REMARK   24  A    between atoms: _63  and  _64
REMARK   25  A    between atoms: _63  and  _66
REMARK   26  A    between atoms: _66  and  _67
REMARK   27  A    between atoms: _69  and  _71
REMARK   28  A    between atoms: _71  and  _72
REMARK   29  A    between atoms: _71  and  _74
REMARK   30  A    between atoms: _74  and  _75
REMARK   31  A    between atoms: _78  and  _80
REMARK   32  A    between atoms: _80  and  _81
REMARK   33  A    between atoms: _83  and  _85
REMARK   34  A    between atoms: _85  and  _86
REMARK   35  A    between atoms: _85  and  _88
REMARK   36  A    between atoms: _88  and  _89
REMARK   37  A    between atoms: _94  and  _96
REMARK   38  A    between atoms: _96  and  _97
REMARK   39  A    between atoms: _99  and  _101
REMARK   40  A    between atoms: _101  and  _102
REMARK   41  A    between atoms: _101  and  _104
REMARK   42  A    between atoms: _104  and  _105
REMARK   43  A    between atoms: _105  and  _106
REMARK   44  A    between atoms: _108  and  _110
REMARK   45  A    between atoms: _110  and  _111
REMARK   46  A    between atoms: _110  and  _113
REMARK   47  A    between atoms: _113  and  _114
REMARK   48  A    between atoms: _119  and  _120
REMARK   49  A    between atoms: _122  and  _124
REMARK   50  A    between atoms: _124  and  _125
REMARK   51  A    between atoms: _124  and  _127
REMARK   52  A    between atoms: _127  and  _128
REMARK   53  A    between atoms: _131  and  _133
REMARK   54  A    between atoms: _133  and  _134
REMARK   55  A    between atoms: _133  and  _136
REMARK   56  A    between atoms: _136  and  _137
REMARK   57  A    between atoms: _139  and  _141
REMARK   58  A    between atoms: _141  and  _142
REMARK   59  A    between atoms: _141  and  _144
REMARK   60  A    between atoms: _144  and  _145
REMARK   61  A    between atoms: _148  and  _150
REMARK   62  A    between atoms: _150  and  _151
REMARK   63  A    between atoms: _150  and  _153
REMARK   64  A    between atoms: _153  and  _154
REMARK   65  A    between atoms: _154  and  _155
REMARK   66  A    between atoms: _155  and  _156
REMARK   67  A    between atoms: _165  and  _167
REMARK   68  A    between atoms: _167  and  _168
REMARK   69  A    between atoms: _167  and  _170
REMARK   70  A    between atoms: _170  and  _171
REMARK   71  A    between atoms: _177  and  _179
REMARK   72  A    between atoms: _179  and  _180
REMARK   73  A    between atoms: _179  and  _182
REMARK   74  A    between atoms: _182  and  _183
REMARK   75  A    between atoms: _193  and  _195
REMARK   76  A    between atoms: _195  and  _196
REMARK   77  A    between atoms: _195  and  _198
REMARK   78  A    between atoms: _201  and  _203
REMARK   79  A    between atoms: _203  and  _204
REMARK   80  A    between atoms: _203  and  _206
REMARK   81  A    between atoms: _206  and  _207
REMARK   82  A    between atoms: _210  and  _212
REMARK   83  A    between atoms: _212  and  _213
REMARK   84  A    between atoms: _215  and  _217
REMARK   85  A    between atoms: _217  and  _218
REMARK   86  A    between atoms: _217  and  _220
REMARK   87  A    between atoms: _220  and  _221
REMARK   88  A    between atoms: _223  and  _225
REMARK   89  A    between atoms: _225  and  _226
REMARK   90  A    between atoms: _225  and  _228
REMARK   91  A    between atoms: _228  and  _229
REMARK   92  A    between atoms: _239  and  _241
REMARK   93  A    between atoms: _241  and  _242
REMARK   94  A    between atoms: _241  and  _244
REMARK   95  A    between atoms: _244  and  _245
REMARK   96  A    between atoms: _247  and  _249
REMARK   97  A    between atoms: _249  and  _250
REMARK   98  A    between atoms: _249  and  _252
REMARK   99  A    between atoms: _252  and  _253
REMARK  100  A    between atoms: _256  and  _258
REMARK  101  A    between atoms: _258  and  _259
REMARK  102  A    between atoms: _262  and  _264
REMARK  103  A    between atoms: _264  and  _265
REMARK  104  A    between atoms: _264  and  _267
REMARK  105  A    between atoms: _267  and  _268
REMARK  106  A    between atoms: _270  and  _272
REMARK  107  A    between atoms: _272  and  _273
REMARK  108  A    between atoms: _272  and  _275
REMARK  109  A    between atoms: _275  and  _276
REMARK  110  A    between atoms: _276  and  _277
REMARK  111  A    between atoms: _281  and  _282
REMARK  112  A    between atoms: _287  and  _289
REMARK  113  A    between atoms: _289  and  _290
REMARK  114  A    between atoms: _289  and  _292
REMARK  115  A    between atoms: _292  and  _293
REMARK  116  A    between atoms: _295  and  _297
REMARK  117  A    between atoms: _297  and  _298
REMARK  118  A    between atoms: _297  and  _300
REMARK  119  A    between atoms: _300  and  _301
REMARK  120  A    between atoms: _301  and  _302
REMARK  121  A    between atoms: _307  and  _309
REMARK  122  A    between atoms: _309  and  _310
REMARK  123  A    between atoms: _309  and  _312
REMARK  124  A    between atoms: _312  and  _313
REMARK  125  A    between atoms: _316  and  _318
REMARK  126  A    between atoms: _318  and  _319
REMARK  127  A    between atoms: _318  and  _321
REMARK  128  A    between atoms: _321  and  _322
REMARK  129  A    between atoms: _325  and  _327
REMARK  130  A    between atoms: _327  and  _328
REMARK  131  A    between atoms: _327  and  _330
REMARK  132  A    between atoms: _330  and  _331
REMARK  133  A    between atoms: _336  and  _337
REMARK  134  A    between atoms: _339  and  _341
REMARK  135  A    between atoms: _341  and  _342
REMARK  136  A    between atoms: _341  and  _344
REMARK  137  A    between atoms: _344  and  _345
REMARK  138  A    between atoms: _351  and  _353
REMARK  139  A    between atoms: _353  and  _354
REMARK  140  A    between atoms: _353  and  _356
REMARK  141  A    between atoms: _356  and  _357
REMARK  142  A    between atoms: _357  and  _358
REMARK                            x       y       z     vdW  Elec       q    Type
REMARK                         _______ _______ _______ _____ _____    ______ ____
ROOT
ATOM      1  O   HOH     1      -5.132  27.946   0.907  0.00  0.00    +0.000 OA
ENDROOT
TORSDOF 0
REMARK  Name = ../refined-set-2016/3dri/3dri_pocket.pdb
REMARK  142 active torsions:
REMARK  status: ('A' for Active; 'I' for Inactive)
REMARK    1  A    between atoms: _1  and  _3
REMARK    2  A    between atoms: _3  and  _4
REMARK    3  A    between atoms: _3  and  _6
REMARK    4  A    between atoms: _6  and  _7
REMARK    5  A    between atoms: _10  and  _12
REMARK    6  A    between atoms: _12  and  _13
REMARK    7  A    between atoms: _12  and  _15
REMARK    8  A    between atoms: _15  and  _16
REMARK    9  A    between atoms: _16  and  _17
REMARK   10  A    between atoms: _17  and  _18
REMARK   11  A    between atoms: _27  and  _29
REMARK   12  A    between atoms: _29  and  _30
REMARK   13  A    between atoms: _29  and  _32
REMARK   14  A    between atoms: _32  and  _33
REMARK   15  A    between atoms: _43  and  _45
REMARK   16  A    between atoms: _45  and  _46
REMARK   17  A    between atoms: _45  and  _48
REMARK   18  A    between atoms: _48  and  _49
REMARK   19  A    between atoms: _52  and  _54
REMARK   20  A    between atoms: _54  and  _55
REMARK   21  A    between atoms: _54  and  _57
REMARK   22  A    between atoms: _57  and  _58
REMARK   23  A    between atoms: _61  and  _63
REMARK   24  A    between atoms: _63  and  _64
REMARK   25  A    between atoms: _63  and  _66
REMARK   26  A    between atoms: _66  and  _67
REMARK   27  A    between atoms: _69  and  _71
REMARK   28  A    between atoms: _71  and  _72
REMARK   29  A    between atoms: _71  and  _74
REMARK   30  A    between atoms: _74  and  _75
REMARK   31  A    between atoms: _78  and  _80
REMARK   32  A    between atoms: _80  and  _81
REMARK   33  A    between atoms: _83  and  _85
REMARK   34  A    between atoms: _85  and  _86
REMARK   35  A    between atoms: _85  and  _88
REMARK   36  A    between atoms: _88  and  _89
REMARK   37  A    between atoms: _94  and  _96
REMARK   38  A    between atoms: _96  and  _97
REMARK   39  A    between atoms: _99  and  _101
REMARK   40  A    between atoms: _101  and  _102
REMARK   41  A    between atoms: _101  and  _104
REMARK   42  A    between atoms: _104  and  _105
REMARK   43  A    between atoms: _105  and  _106
REMARK   44  A    between atoms: _108  and  _110
REMARK   45  A    between atoms: _110  and  _111
REMARK   46  A    between atoms: _110  and  _113
REMARK   47  A    between atoms: _113  and  _114
REMARK   48  A    between atoms: _119  and  _120
REMARK   49  A    between atoms: _122  and  _124
REMARK   50  A    between atoms: _124  and  _125
REMARK   51  A    between atoms: _124  and  _127
REMARK   52  A    between atoms: _127  and  _128
REMARK   53  A    between atoms: _131  and  _133
REMARK   54  A    between atoms: _133  and  _134
REMARK   55  A    between atoms: _133  and  _136
REMARK   56  A    between atoms: _136  and  _137
REMARK   57  A    between atoms: _139  and  _141
REMARK   58  A    between atoms: _141  and  _142
REMARK   59  A    between atoms: _141  and  _144
REMARK   60  A    between atoms: _144  and  _145
REMARK   61  A    between atoms: _148  and  _150
REMARK   62  A    between atoms: _150  and  _151
REMARK   63  A    between atoms: _150  and  _153
REMARK   64  A    between atoms: _153  and  _154
REMARK   65  A    between atoms: _154  and  _155
REMARK   66  A    between atoms: _155  and  _156
REMARK   67  A    between atoms: _165  and  _167
REMARK   68  A    between atoms: _167  and  _168
REMARK   69  A    between atoms: _167  and  _170
REMARK   70  A    between atoms: _170  and  _171
REMARK   71  A    between atoms: _177  and  _179
REMARK   72  A    between atoms: _179  and  _180
REMARK   73  A    between atoms: _179  and  _182
REMARK   74  A    between atoms: _182  and  _183
REMARK   75  A    between atoms: _193  and  _195
REMARK   76  A    between atoms: _195  and  _196
REMARK   77  A    between atoms: _195  and  _198
REMARK   78  A    between atoms: _201  and  _203
REMARK   79  A    between atoms: _203  and  _204
REMARK   80  A    between atoms: _203  and  _206
REMARK   81  A    between atoms: _206  and  _207
REMARK   82  A    between atoms: _210  and  _212
REMARK   83  A    between atoms: _212  and  _213
REMARK   84  A    between atoms: _215  and  _217
REMARK   85  A    between atoms: _217  and  _218
REMARK   86  A    between atoms: _217  and  _220
REMARK   87  A    between atoms: _220  and  _221
REMARK   88  A    between atoms: _223  and  _225
REMARK   89  A    between atoms: _225  and  _226
REMARK   90  A    between atoms: _225  and  _228
REMARK   91  A    between atoms: _228  and  _229
REMARK   92  A    between atoms: _239  and  _241
REMARK   93  A    between atoms: _241  and  _242
REMARK   94  A    between atoms: _241  and  _244
REMARK   95  A    between atoms: _244  and  _245
REMARK   96  A    between atoms: _247  and  _249
REMARK   97  A    between atoms: _249  and  _250
REMARK   98  A    between atoms: _249  and  _252
REMARK   99  A    between atoms: _252  and  _253
REMARK  100  A    between atoms: _256  and  _258
REMARK  101  A    between atoms: _258  and  _259
REMARK  102  A    between atoms: _262  and  _264
REMARK  103  A    between atoms: _264  and  _265
REMARK  104  A    between atoms: _264  and  _267
REMARK  105  A    between atoms: _267  and  _268
REMARK  106  A    between atoms: _270  and  _272
REMARK  107  A    between atoms: _272  and  _273
REMARK  108  A    between atoms: _272  and  _275
REMARK  109  A    between atoms: _275  and  _276
REMARK  110  A    between atoms: _276  and  _277
REMARK  111  A    between atoms: _281  and  _282
REMARK  112  A    between atoms: _287  and  _289
REMARK  113  A    between atoms: _289  and  _290
REMARK  114  A    between atoms: _289  and  _292
REMARK  115  A    between atoms: _292  and  _293
REMARK  116  A    between atoms: _295  and  _297
REMARK  117  A    between atoms: _297  and  _298
REMARK  118  A    between atoms: _297  and  _300
REMARK  119  A    between atoms: _300  and  _301
REMARK  120  A    between atoms: _301  and  _302
REMARK  121  A    between atoms: _307  and  _309
REMARK  122  A    between atoms: _309  and  _310
REMARK  123  A    between atoms: _309  and  _312
REMARK  124  A    between atoms: _312  and  _313
REMARK  125  A    between atoms: _316  and  _318
REMARK  126  A    between atoms: _318  and  _319
REMARK  127  A    between atoms: _318  and  _321
REMARK  128  A    between atoms: _321  and  _322
REMARK  129  A    between atoms: _325  and  _327
REMARK  130  A    between atoms: _327  and  _328
REMARK  131  A    between atoms: _327  and  _330
REMARK  132  A    between atoms: _330  and  _331
REMARK  133  A    between atoms: _336  and  _337
REMARK  134  A    between atoms: _339  and  _341
REMARK  135  A    between atoms: _341  and  _342
REMARK  136  A    between atoms: _341  and  _344
REMARK  137  A    between atoms: _344  and  _345
REMARK  138  A    between atoms: _351  and  _353
REMARK  139  A    between atoms: _353  and  _354
REMARK  140  A    between atoms: _353  and  _356
REMARK  141  A    between atoms: _356  and  _357
REMARK  142  A    between atoms: _357  and  _358
REMARK                            x       y       z     vdW  Elec       q    Type
REMARK                         _______ _______ _______ _____ _____    ______ ____
ROOT
ATOM      1  O   HOH     1      -4.514  21.056  12.009  0.00  0.00    +0.000 OA
ENDROOT
TORSDOF 0
REMARK  Name = ../refined-set-2016/3dri/3dri_pocket.pdb
REMARK  142 active torsions:
REMARK  status: ('A' for Active; 'I' for Inactive)
REMARK    1  A    between atoms: _1  and  _3
REMARK    2  A    between atoms: _3  and  _4
REMARK    3  A    between atoms: _3  and  _6
REMARK    4  A    between atoms: _6  and  _7
REMARK    5  A    between atoms: _10  and  _12
REMARK    6  A    between atoms: _12  and  _13
REMARK    7  A    between atoms: _12  and  _15
REMARK    8  A    between atoms: _15  and  _16
REMARK    9  A    between atoms: _16  and  _17
REMARK   10  A    between atoms: _17  and  _18
REMARK   11  A    between atoms: _27  and  _29
REMARK   12  A    between atoms: _29  and  _30
REMARK   13  A    between atoms: _29  and  _32
REMARK   14  A    between atoms: _32  and  _33
REMARK   15  A    between atoms: _43  and  _45
REMARK   16  A    between atoms: _45  and  _46
REMARK   17  A    between atoms: _45  and  _48
REMARK   18  A    between atoms: _48  and  _49
REMARK   19  A    between atoms: _52  and  _54
REMARK   20  A    between atoms: _54  and  _55
REMARK   21  A    between atoms: _54  and  _57
REMARK   22  A    between atoms: _57  and  _58
REMARK   23  A    between atoms: _61  and  _63
REMARK   24  A    between atoms: _63  and  _64
REMARK   25  A    between atoms: _63  and  _66
REMARK   26  A    between atoms: _66  and  _67
REMARK   27  A    between atoms: _69  and  _71
REMARK   28  A    between atoms: _71  and  _72
REMARK   29  A    between atoms: _71  and  _74
REMARK   30  A    between atoms: _74  and  _75
REMARK   31  A    between atoms: _78  and  _80
REMARK   32  A    between atoms: _80  and  _81
REMARK   33  A    between atoms: _83  and  _85
REMARK   34  A    between atoms: _85  and  _86
REMARK   35  A    between atoms: _85  and  _88
REMARK   36  A    between atoms: _88  and  _89
REMARK   37  A    between atoms: _94  and  _96
REMARK   38  A    between atoms: _96  and  _97
REMARK   39  A    between atoms: _99  and  _101
REMARK   40  A    between atoms: _101  and  _102
REMARK   41  A    between atoms: _101  and  _104
REMARK   42  A    between atoms: _104  and  _105
REMARK   43  A    between atoms: _105  and  _106
REMARK   44  A    between atoms: _108  and  _110
REMARK   45  A    between atoms: _110  and  _111
REMARK   46  A    between atoms: _110  and  _113
REMARK   47  A    between atoms: _113  and  _114
REMARK   48  A    between atoms: _119  and  _120
REMARK   49  A    between atoms: _122  and  _124
REMARK   50  A    between atoms: _124  and  _125
REMARK   51  A    between atoms: _124  and  _127
REMARK   52  A    between atoms: _127  and  _128
REMARK   53  A    between atoms: _131  and  _133
REMARK   54  A    between atoms: _133  and  _134
REMARK   55  A    between atoms: _133  and  _136
REMARK   56  A    between atoms: _136  and  _137
REMARK   57  A    between atoms: _139  and  _141
REMARK   58  A    between atoms: _141  and  _142
REMARK   59  A    between atoms: _141  and  _144
REMARK   60  A    between atoms: _144  and  _145
REMARK   61  A    between atoms: _148  and  _150
REMARK   62  A    between atoms: _150  and  _151
REMARK   63  A    between atoms: _150  and  _153
REMARK   64  A    between atoms: _153  and  _154
REMARK   65  A    between atoms: _154  and  _155
REMARK   66  A    between atoms: _155  and  _156
REMARK   67  A    between atoms: _165  and  _167
REMARK   68  A    between atoms: _167  and  _168
REMARK   69  A    between atoms: _167  and  _170
REMARK   70  A    between atoms: _170  and  _171
REMARK   71  A    between atoms: _177  and  _179
REMARK   72  A    between atoms: _179  and  _180
REMARK   73  A    between atoms: _179  and  _182
REMARK   74  A    between atoms: _182  and  _183
REMARK   75  A    between atoms: _193  and  _195
REMARK   76  A    between atoms: _195  and  _196
REMARK   77  A    between atoms: _195  and  _198
REMARK   78  A    between atoms: _201  and  _203
REMARK   79  A    between atoms: _203  and  _204
REMARK   80  A    between atoms: _203  and  _206
REMARK   81  A    between atoms: _206  and  _207
REMARK   82  A    between atoms: _210  and  _212
REMARK   83  A    between atoms: _212  and  _213
REMARK   84  A    between atoms: _215  and  _217
REMARK   85  A    between atoms: _217  and  _218
REMARK   86  A    between atoms: _217  and  _220
REMARK   87  A    between atoms: _220  and  _221
REMARK   88  A    between atoms: _223  and  _225
REMARK   89  A    between atoms: _225  and  _226
REMARK   90  A    between atoms: _225  and  _228
REMARK   91  A    between atoms: _228  and  _229
REMARK   92  A    between atoms: _239  and  _241
REMARK   93  A    between atoms: _241  and  _242
REMARK   94  A    between atoms: _241  and  _244
REMARK   95  A    between atoms: _244  and  _245
REMARK   96  A    between atoms: _247  and  _249
REMARK   97  A    between atoms: _249  and  _250
REMARK   98  A    between atoms: _249  and  _252
REMARK   99  A    between atoms: _252  and  _253
REMARK  100  A    between atoms: _256  and  _258
REMARK  101  A    between atoms: _258  and  _259
REMARK  102  A    between atoms: _262  and  _264
REMARK  103  A    between atoms: _264  and  _265
REMARK  104  A    between atoms: _264  and  _267
REMARK  105  A    between atoms: _267  and  _268
REMARK  106  A    between atoms: _270  and  _272
REMARK  107  A    between atoms: _272  and  _273
REMARK  108  A    between atoms: _272  and  _275
REMARK  109  A    between atoms: _275  and  _276
REMARK  110  A    between atoms: _276  and  _277
REMARK  111  A    between atoms: _281  and  _282
REMARK  112  A    between atoms: _287  and  _289
REMARK  113  A    between atoms: _289  and  _290
REMARK  114  A    between atoms: _289  and  _292
REMARK  115  A    between atoms: _292  and  _293
REMARK  116  A    between atoms: _295  and  _297
REMARK  117  A    between atoms: _297  and  _298
REMARK  118  A    between atoms: _297  and  _300
REMARK  119  A    between atoms: _300  and  _301
REMARK  120  A    between atoms: _301  and  _302
REMARK  121  A    between atoms: _307  and  _309
REMARK  122  A    between atoms: _309  and  _310
REMARK  123  A    between atoms: _309  and  _312
REMARK  124  A    between atoms: _312  and  _313
REMARK  125  A    between atoms: _316  and  _318
REMARK  126  A    between atoms: _318  and  _319
REMARK  127  A    between atoms: _318  and  _321
REMARK  128  A    between atoms: _321  and  _322
REMARK  129  A    between atoms: _325  and  _327
REMARK  130  A    between atoms: _327  and  _328
REMARK  131  A    between atoms: _327  and  _330
REMARK  132  A    between atoms: _330  and  _331
REMARK  133  A    between atoms: _336  and  _337
REMARK  134  A    between atoms: _339  and  _341
REMARK  135  A    between atoms: _341  and  _342
REMARK  136  A    between atoms: _341  and  _344
REMARK  137  A    between atoms: _344  and  _345
REMARK  138  A    between atoms: _351  and  _353
REMARK  139  A    between atoms: _353  and  _354
REMARK  140  A    between atoms: _353  and  _356
REMARK  141  A    between atoms: _356  and  _357
REMARK  142  A    between atoms: _357  and  _358
REMARK                            x       y       z     vdW  Elec       q    Type
REMARK                         _______ _______ _______ _____ _____    ______ ____
ROOT
ATOM      1  O   HOH     1       5.484  25.419   6.655  0.00  0.00    +0.000 OA
ENDROOT
TORSDOF 0
REMARK  Name = ../refined-set-2016/3dri/3dri_pocket.pdb
REMARK  142 active torsions:
REMARK  status: ('A' for Active; 'I' for Inactive)
REMARK    1  A    between atoms: _1  and  _3
REMARK    2  A    between atoms: _3  and  _4
REMARK    3  A    between atoms: _3  and  _6
REMARK    4  A    between atoms: _6  and  _7
REMARK    5  A    between atoms: _10  and  _12
REMARK    6  A    between atoms: _12  and  _13
REMARK    7  A    between atoms: _12  and  _15
REMARK    8  A    between atoms: _15  and  _16
REMARK    9  A    between atoms: _16  and  _17
REMARK   10  A    between atoms: _17  and  _18
REMARK   11  A    between atoms: _27  and  _29
REMARK   12  A    between atoms: _29  and  _30
REMARK   13  A    between atoms: _29  and  _32
REMARK   14  A    between atoms: _32  and  _33
REMARK   15  A    between atoms: _43  and  _45
REMARK   16  A    between atoms: _45  and  _46
REMARK   17  A    between atoms: _45  and  _48
REMARK   18  A    between atoms: _48  and  _49
REMARK   19  A    between atoms: _52  and  _54
REMARK   20  A    between atoms: _54  and  _55
REMARK   21  A    between atoms: _54  and  _57
REMARK   22  A    between atoms: _57  and  _58
REMARK   23  A    between atoms: _61  and  _63
REMARK   24  A    between atoms: _63  and  _64
REMARK   25  A    between atoms: _63  and  _66
REMARK   26  A    between atoms: _66  and  _67
REMARK   27  A    between atoms: _69  and  _71
REMARK   28  A    between atoms: _71  and  _72
REMARK   29  A    between atoms: _71  and  _74
REMARK   30  A    between atoms: _74  and  _75
REMARK   31  A    between atoms: _78  and  _80
REMARK   32  A    between atoms: _80  and  _81
REMARK   33  A    between atoms: _83  and  _85
REMARK   34  A    between atoms: _85  and  _86
REMARK   35  A    between atoms: _85  and  _88
REMARK   36  A    between atoms: _88  and  _89
REMARK   37  A    between atoms: _94  and  _96
REMARK   38  A    between atoms: _96  and  _97
REMARK   39  A    between atoms: _99  and  _101
REMARK   40  A    between atoms: _101  and  _102
REMARK   41  A    between atoms: _101  and  _104
REMARK   42  A    between atoms: _104  and  _105
REMARK   43  A    between atoms: _105  and  _106
REMARK   44  A    between atoms: _108  and  _110
REMARK   45  A    between atoms: _110  and  _111
REMARK   46  A    between atoms: _110  and  _113
REMARK   47  A    between atoms: _113  and  _114
REMARK   48  A    between atoms: _119  and  _120
REMARK   49  A    between atoms: _122  and  _124
REMARK   50  A    between atoms: _124  and  _125
REMARK   51  A    between atoms: _124  and  _127
REMARK   52  A    between atoms: _127  and  _128
REMARK   53  A    between atoms: _131  and  _133
REMARK   54  A    between atoms: _133  and  _134
REMARK   55  A    between atoms: _133  and  _136
REMARK   56  A    between atoms: _136  and  _137
REMARK   57  A    between atoms: _139  and  _141
REMARK   58  A    between atoms: _141  and  _142
REMARK   59  A    between atoms: _141  and  _144
REMARK   60  A    between atoms: _144  and  _145
REMARK   61  A    between atoms: _148  and  _150
REMARK   62  A    between atoms: _150  and  _151
REMARK   63  A    between atoms: _150  and  _153
REMARK   64  A    between atoms: _153  and  _154
REMARK   65  A    between atoms: _154  and  _155
REMARK   66  A    between atoms: _155  and  _156
REMARK   67  A    between atoms: _165  and  _167
REMARK   68  A    between atoms: _167  and  _168
REMARK   69  A    between atoms: _167  and  _170
REMARK   70  A    between atoms: _170  and  _171
REMARK   71  A    between atoms: _177  and  _179
REMARK   72  A    between atoms: _179  and  _180
REMARK   73  A    between atoms: _179  and  _182
REMARK   74  A    between atoms: _182  and  _183
REMARK   75  A    between atoms: _193  and  _195
REMARK   76  A    between atoms: _195  and  _196
REMARK   77  A    between atoms: _195  and  _198
REMARK   78  A    between atoms: _201  and  _203
REMARK   79  A    between atoms: _203  and  _204
REMARK   80  A    between atoms: _203  and  _206
REMARK   81  A    between atoms: _206  and  _207
REMARK   82  A    between atoms: _210  and  _212
REMARK   83  A    between atoms: _212  and  _213
REMARK   84  A    between atoms: _215  and  _217
REMARK   85  A    between atoms: _217  and  _218
REMARK   86  A    between atoms: _217  and  _220
REMARK   87  A    between atoms: _220  and  _221
REMARK   88  A    between atoms: _223  and  _225
REMARK   89  A    between atoms: _225  and  _226
REMARK   90  A    between atoms: _225  and  _228
REMARK   91  A    between atoms: _228  and  _229
REMARK   92  A    between atoms: _239  and  _241
REMARK   93  A    between atoms: _241  and  _242
REMARK   94  A    between atoms: _241  and  _244
REMARK   95  A    between atoms: _244  and  _245
REMARK   96  A    between atoms: _247  and  _249
REMARK   97  A    between atoms: _249  and  _250
REMARK   98  A    between atoms: _249  and  _252
REMARK   99  A    between atoms: _252  and  _253
REMARK  100  A    between atoms: _256  and  _258
REMARK  101  A    between atoms: _258  and  _259
REMARK  102  A    between atoms: _262  and  _264
REMARK  103  A    between atoms: _264  and  _265
REMARK  104  A    between atoms: _264  and  _267
REMARK  105  A    between atoms: _267  and  _268
REMARK  106  A    between atoms: _270  and  _272
REMARK  107  A    between atoms: _272  and  _273
REMARK  108  A    between atoms: _272  and  _275
REMARK  109  A    between atoms: _275  and  _276
REMARK  110  A    between atoms: _276  and  _277
REMARK  111  A    between atoms: _281  and  _282
REMARK  112  A    between atoms: _287  and  _289
REMARK  113  A    between atoms: _289  and  _290
REMARK  114  A    between atoms: _289  and  _292
REMARK  115  A    between atoms: _292  and  _293
REMARK  116  A    between atoms: _295  and  _297
REMARK  117  A    between atoms: _297  and  _298
REMARK  118  A    between atoms: _297  and  _300
REMARK  119  A    between atoms: _300  and  _301
REMARK  120  A    between atoms: _301  and  _302
REMARK  121  A    between atoms: _307  and  _309
REMARK  122  A    between atoms: _309  and  _310
REMARK  123  A    between atoms: _309  and  _312
REMARK  124  A    between atoms: _312  and  _313
REMARK  125  A    between atoms: _316  and  _318
REMARK  126  A    between atoms: _318  and  _319
REMARK  127  A    between atoms: _318  and  _321
REMARK  128  A    between atoms: _321  and  _322
REMARK  129  A    between atoms: _325  and  _327
REMARK  130  A    between atoms: _327  and  _328
REMARK  131  A    between atoms: _327  and  _330
REMARK  132  A    between atoms: _330  and  _331
REMARK  133  A    between atoms: _336  and  _337
REMARK  134  A    between atoms: _339  and  _341
REMARK  135  A    between atoms: _341  and  _342
REMARK  136  A    between atoms: _341  and  _344
REMARK  137  A    between atoms: _344  and  _345
REMARK  138  A    between atoms: _351  and  _353
REMARK  139  A    between atoms: _353  and  _354
REMARK  140  A    between atoms: _353  and  _356
REMARK  141  A    between atoms: _356  and  _357
REMARK  142  A    between atoms: _357  and  _358
REMARK                            x       y       z     vdW  Elec       q    Type
REMARK                         _______ _______ _______ _____ _____    ______ ____
ROOT
ATOM      1  O   HOH     1      -3.071  23.110  -7.150  0.00  0.00    +0.000 OA
ENDROOT
TORSDOF 0
REMARK  Name = ../refined-set-2016/3dri/3dri_pocket.pdb
REMARK  142 active torsions:
REMARK  status: ('A' for Active; 'I' for Inactive)
REMARK    1  A    between atoms: _1  and  _3
REMARK    2  A    between atoms: _3  and  _4
REMARK    3  A    between atoms: _3  and  _6
REMARK    4  A    between atoms: _6  and  _7
REMARK    5  A    between atoms: _10  and  _12
REMARK    6  A    between atoms: _12  and  _13
REMARK    7  A    between atoms: _12  and  _15
REMARK    8  A    between atoms: _15  and  _16
REMARK    9  A    between atoms: _16  and  _17
REMARK   10  A    between atoms: _17  and  _18
REMARK   11  A    between atoms: _27  and  _29
REMARK   12  A    between atoms: _29  and  _30
REMARK   13  A    between atoms: _29  and  _32
REMARK   14  A    between atoms: _32  and  _33
REMARK   15  A    between atoms: _43  and  _45
REMARK   16  A    between atoms: _45  and  _46
REMARK   17  A    between atoms: _45  and  _48
REMARK   18  A    between atoms: _48  and  _49
REMARK   19  A    between atoms: _52  and  _54
REMARK   20  A    between atoms: _54  and  _55
REMARK   21  A    between atoms: _54  and  _57
REMARK   22  A    between atoms: _57  and  _58
REMARK   23  A    between atoms: _61  and  _63
REMARK   24  A    between atoms: _63  and  _64
REMARK   25  A    between atoms: _63  and  _66
REMARK   26  A    between atoms: _66  and  _67
REMARK   27  A    between atoms: _69  and  _71
REMARK   28  A    between atoms: _71  and  _72
REMARK   29  A    between atoms: _71  and  _74
REMARK   30  A    between atoms: _74  and  _75
REMARK   31  A    between atoms: _78  and  _80
REMARK   32  A    between atoms: _80  and  _81
REMARK   33  A    between atoms: _83  and  _85
REMARK   34  A    between atoms: _85  and  _86
REMARK   35  A    between atoms: _85  and  _88
REMARK   36  A    between atoms: _88  and  _89
REMARK   37  A    between atoms: _94  and  _96
REMARK   38  A    between atoms: _96  and  _97
REMARK   39  A    between atoms: _99  and  _101
REMARK   40  A    between atoms: _101  and  _102
REMARK   41  A    between atoms: _101  and  _104
REMARK   42  A    between atoms: _104  and  _105
REMARK   43  A    between atoms: _105  and  _106
REMARK   44  A    between atoms: _108  and  _110
REMARK   45  A    between atoms: _110  and  _111
REMARK   46  A    between atoms: _110  and  _113
REMARK   47  A    between atoms: _113  and  _114
REMARK   48  A    between atoms: _119  and  _120
REMARK   49  A    between atoms: _122  and  _124
REMARK   50  A    between atoms: _124  and  _125
REMARK   51  A    between atoms: _124  and  _127
REMARK   52  A    between atoms: _127  and  _128
REMARK   53  A    between atoms: _131  and  _133
REMARK   54  A    between atoms: _133  and  _134
REMARK   55  A    between atoms: _133  and  _136
REMARK   56  A    between atoms: _136  and  _137
REMARK   57  A    between atoms: _139  and  _141
REMARK   58  A    between atoms: _141  and  _142
REMARK   59  A    between atoms: _141  and  _144
REMARK   60  A    between atoms: _144  and  _145
REMARK   61  A    between atoms: _148  and  _150
REMARK   62  A    between atoms: _150  and  _151
REMARK   63  A    between atoms: _150  and  _153
REMARK   64  A    between atoms: _153  and  _154
REMARK   65  A    between atoms: _154  and  _155
REMARK   66  A    between atoms: _155  and  _156
REMARK   67  A    between atoms: _165  and  _167
REMARK   68  A    between atoms: _167  and  _168
REMARK   69  A    between atoms: _167  and  _170
REMARK   70  A    between atoms: _170  and  _171
REMARK   71  A    between atoms: _177  and  _179
REMARK   72  A    between atoms: _179  and  _180
REMARK   73  A    between atoms: _179  and  _182
REMARK   74  A    between atoms: _182  and  _183
REMARK   75  A    between atoms: _193  and  _195
REMARK   76  A    between atoms: _195  and  _196
REMARK   77  A    between atoms: _195  and  _198
REMARK   78  A    between atoms: _201  and  _203
REMARK   79  A    between atoms: _203  and  _204
REMARK   80  A    between atoms: _203  and  _206
REMARK   81  A    between atoms: _206  and  _207
REMARK   82  A    between atoms: _210  and  _212
REMARK   83  A    between atoms: _212  and  _213
REMARK   84  A    between atoms: _215  and  _217
REMARK   85  A    between atoms: _217  and  _218
REMARK   86  A    between atoms: _217  and  _220
REMARK   87  A    between atoms: _220  and  _221
REMARK   88  A    between atoms: _223  and  _225
REMARK   89  A    between atoms: _225  and  _226
REMARK   90  A    between atoms: _225  and  _228
REMARK   91  A    between atoms: _228  and  _229
REMARK   92  A    between atoms: _239  and  _241
REMARK   93  A    between atoms: _241  and  _242
REMARK   94  A    between atoms: _241  and  _244
REMARK   95  A    between atoms: _244  and  _245
REMARK   96  A    between atoms: _247  and  _249
REMARK   97  A    between atoms: _249  and  _250
REMARK   98  A    between atoms: _249  and  _252
REMARK   99  A    between atoms: _252  and  _253
REMARK  100  A    between atoms: _256  and  _258
REMARK  101  A    between atoms: _258  and  _259
REMARK  102  A    between atoms: _262  and  _264
REMARK  103  A    between atoms: _264  and  _265
REMARK  104  A    between atoms: _264  and  _267
REMARK  105  A    between atoms: _267  and  _268
REMARK  106  A    between atoms: _270  and  _272
REMARK  107  A    between atoms: _272  and  _273
REMARK  108  A    between atoms: _272  and  _275
REMARK  109  A    between atoms: _275  and  _276
REMARK  110  A    between atoms: _276  and  _277
REMARK  111  A    between atoms: _281  and  _282
REMARK  112  A    between atoms: _287  and  _289
REMARK  113  A    between atoms: _289  and  _290
REMARK  114  A    between atoms: _289  and  _292
REMARK  115  A    between atoms: _292  and  _293
REMARK  116  A    between atoms: _295  and  _297
REMARK  117  A    between atoms: _297  and  _298
REMARK  118  A    between atoms: _297  and  _300
REMARK  119  A    between atoms: _300  and  _301
REMARK  120  A    between atoms: _301  and  _302
REMARK  121  A    between atoms: _307  and  _309
REMARK  122  A    between atoms: _309  and  _310
REMARK  123  A    between atoms: _309  and  _312
REMARK  124  A    between atoms: _312  and  _313
REMARK  125  A    between atoms: _316  and  _318
REMARK  126  A    between atoms: _318  and  _319
REMARK  127  A    between atoms: _318  and  _321
REMARK  128  A    between atoms: _321  and  _322
REMARK  129  A    between atoms: _325  and  _327
REMARK  130  A    between atoms: _327  and  _328
REMARK  131  A    between atoms: _327  and  _330
REMARK  132  A    between atoms: _330  and  _331
REMARK  133  A    between atoms: _336  and  _337
REMARK  134  A    between atoms: _339  and  _341
REMARK  135  A    between atoms: _341  and  _342
REMARK  136  A    between atoms: _341  and  _344
REMARK  137  A    between atoms: _344  and  _345
REMARK  138  A    between atoms: _351  and  _353
REMARK  139  A    between atoms: _353  and  _354
REMARK  140  A    between atoms: _353  and  _356
REMARK  141  A    between atoms: _356  and  _357
REMARK  142  A    between atoms: _357  and  _358
REMARK                            x       y       z     vdW  Elec       q    Type
REMARK                         _______ _______ _______ _____ _____    ______ ____
ROOT
ATOM      1  O   HOH     1      -1.622  17.861  -8.731  0.00  0.00    +0.000 OA
ENDROOT
TORSDOF 0
REMARK  Name = ../refined-set-2016/3dri/3dri_pocket.pdb
REMARK  142 active torsions:
REMARK  status: ('A' for Active; 'I' for Inactive)
REMARK    1  A    between atoms: _1  and  _3
REMARK    2  A    between atoms: _3  and  _4
REMARK    3  A    between atoms: _3  and  _6
REMARK    4  A    between atoms: _6  and  _7
REMARK    5  A    between atoms: _10  and  _12
REMARK    6  A    between atoms: _12  and  _13
REMARK    7  A    between atoms: _12  and  _15
REMARK    8  A    between atoms: _15  and  _16
REMARK    9  A    between atoms: _16  and  _17
REMARK   10  A    between atoms: _17  and  _18
REMARK   11  A    between atoms: _27  and  _29
REMARK   12  A    between atoms: _29  and  _30
REMARK   13  A    between atoms: _29  and  _32
REMARK   14  A    between atoms: _32  and  _33
REMARK   15  A    between atoms: _43  and  _45
REMARK   16  A    between atoms: _45  and  _46
REMARK   17  A    between atoms: _45  and  _48
REMARK   18  A    between atoms: _48  and  _49
REMARK   19  A    between atoms: _52  and  _54
REMARK   20  A    between atoms: _54  and  _55
REMARK   21  A    between atoms: _54  and  _57
REMARK   22  A    between atoms: _57  and  _58
REMARK   23  A    between atoms: _61  and  _63
REMARK   24  A    between atoms: _63  and  _64
REMARK   25  A    between atoms: _63  and  _66
REMARK   26  A    between atoms: _66  and  _67
REMARK   27  A    between atoms: _69  and  _71
REMARK   28  A    between atoms: _71  and  _72
REMARK   29  A    between atoms: _71  and  _74
REMARK   30  A    between atoms: _74  and  _75
REMARK   31  A    between atoms: _78  and  _80
REMARK   32  A    between atoms: _80  and  _81
REMARK   33  A    between atoms: _83  and  _85
REMARK   34  A    between atoms: _85  and  _86
REMARK   35  A    between atoms: _85  and  _88
REMARK   36  A    between atoms: _88  and  _89
REMARK   37  A    between atoms: _94  and  _96
REMARK   38  A    between atoms: _96  and  _97
REMARK   39  A    between atoms: _99  and  _101
REMARK   40  A    between atoms: _101  and  _102
REMARK   41  A    between atoms: _101  and  _104
REMARK   42  A    between atoms: _104  and  _105
REMARK   43  A    between atoms: _105  and  _106
REMARK   44  A    between atoms: _108  and  _110
REMARK   45  A    between atoms: _110  and  _111
REMARK   46  A    between atoms: _110  and  _113
REMARK   47  A    between atoms: _113  and  _114
REMARK   48  A    between atoms: _119  and  _120
REMARK   49  A    between atoms: _122  and  _124
REMARK   50  A    between atoms: _124  and  _125
REMARK   51  A    between atoms: _124  and  _127
REMARK   52  A    between atoms: _127  and  _128
REMARK   53  A    between atoms: _131  and  _133
REMARK   54  A    between atoms: _133  and  _134
REMARK   55  A    between atoms: _133  and  _136
REMARK   56  A    between atoms: _136  and  _137
REMARK   57  A    between atoms: _139  and  _141
REMARK   58  A    between atoms: _141  and  _142
REMARK   59  A    between atoms: _141  and  _144
REMARK   60  A    between atoms: _144  and  _145
REMARK   61  A    between atoms: _148  and  _150
REMARK   62  A    between atoms: _150  and  _151
REMARK   63  A    between atoms: _150  and  _153
REMARK   64  A    between atoms: _153  and  _154
REMARK   65  A    between atoms: _154  and  _155
REMARK   66  A    between atoms: _155  and  _156
REMARK   67  A    between atoms: _165  and  _167
REMARK   68  A    between atoms: _167  and  _168
REMARK   69  A    between atoms: _167  and  _170
REMARK   70  A    between atoms: _170  and  _171
REMARK   71  A    between atoms: _177  and  _179
REMARK   72  A    between atoms: _179  and  _180
REMARK   73  A    between atoms: _179  and  _182
REMARK   74  A    between atoms: _182  and  _183
REMARK   75  A    between atoms: _193  and  _195
REMARK   76  A    between atoms: _195  and  _196
REMARK   77  A    between atoms: _195  and  _198
REMARK   78  A    between atoms: _201  and  _203
REMARK   79  A    between atoms: _203  and  _204
REMARK   80  A    between atoms: _203  and  _206
REMARK   81  A    between atoms: _206  and  _207
REMARK   82  A    between atoms: _210  and  _212
REMARK   83  A    between atoms: _212  and  _213
REMARK   84  A    between atoms: _215  and  _217
REMARK   85  A    between atoms: _217  and  _218
REMARK   86  A    between atoms: _217  and  _220
REMARK   87  A    between atoms: _220  and  _221
REMARK   88  A    between atoms: _223  and  _225
REMARK   89  A    between atoms: _225  and  _226
REMARK   90  A    between atoms: _225  and  _228
REMARK   91  A    between atoms: _228  and  _229
REMARK   92  A    between atoms: _239  and  _241
REMARK   93  A    between atoms: _241  and  _242
REMARK   94  A    between atoms: _241  and  _244
REMARK   95  A    between atoms: _244  and  _245
REMARK   96  A    between atoms: _247  and  _249
REMARK   97  A    between atoms: _249  and  _250
REMARK   98  A    between atoms: _249  and  _252
REMARK   99  A    between atoms: _252  and  _253
REMARK  100  A    between atoms: _256  and  _258
REMARK  101  A    between atoms: _258  and  _259
REMARK  102  A    between atoms: _262  and  _264
REMARK  103  A    between atoms: _264  and  _265
REMARK  104  A    between atoms: _264  and  _267
REMARK  105  A    between atoms: _267  and  _268
REMARK  106  A    between atoms: _270  and  _272
REMARK  107  A    between atoms: _272  and  _273
REMARK  108  A    between atoms: _272  and  _275
REMARK  109  A    between atoms: _275  and  _276
REMARK  110  A    between atoms: _276  and  _277
REMARK  111  A    between atoms: _281  and  _282
REMARK  112  A    between atoms: _287  and  _289
REMARK  113  A    between atoms: _289  and  _290
REMARK  114  A    between atoms: _289  and  _292
REMARK  115  A    between atoms: _292  and  _293
REMARK  116  A    between atoms: _295  and  _297
REMARK  117  A    between atoms: _297  and  _298
REMARK  118  A    between atoms: _297  and  _300
REMARK  119  A    between atoms: _300  and  _301
REMARK  120  A    between atoms: _301  and  _302
REMARK  121  A    between atoms: _307  and  _309
REMARK  122  A    between atoms: _309  and  _310
REMARK  123  A    between atoms: _309  and  _312
REMARK  124  A    between atoms: _312  and  _313
REMARK  125  A    between atoms: _316  and  _318
REMARK  126  A    between atoms: _318  and  _319
REMARK  127  A    between atoms: _318  and  _321
REMARK  128  A    between atoms: _321  and  _322
REMARK  129  A    between atoms: _325  and  _327
REMARK  130  A    between atoms: _327  and  _328
REMARK  131  A    between atoms: _327  and  _330
REMARK  132  A    between atoms: _330  and  _331
REMARK  133  A    between atoms: _336  and  _337
REMARK  134  A    between atoms: _339  and  _341
REMARK  135  A    between atoms: _341  and  _342
REMARK  136  A    between atoms: _341  and  _344
REMARK  137  A    between atoms: _344  and  _345
REMARK  138  A    between atoms: _351  and  _353
REMARK  139  A    between atoms: _353  and  _354
REMARK  140  A    between atoms: _353  and  _356
REMARK  141  A    between atoms: _356  and  _357
REMARK  142  A    between atoms: _357  and  _358
REMARK                            x       y       z     vdW  Elec       q    Type
REMARK                         _______ _______ _______ _____ _____    ______ ____
ROOT
ATOM      1  O   HOH     1      -6.504  22.934  -6.669  0.00  0.00    +0.000 OA
ENDROOT
TORSDOF 0
REMARK  Name = ../refined-set-2016/3dri/3dri_pocket.pdb
REMARK  142 active torsions:
REMARK  status: ('A' for Active; 'I' for Inactive)
REMARK    1  A    between atoms: _1  and  _3
REMARK    2  A    between atoms: _3  and  _4
REMARK    3  A    between atoms: _3  and  _6
REMARK    4  A    between atoms: _6  and  _7
REMARK    5  A    between atoms: _10  and  _12
REMARK    6  A    between atoms: _12  and  _13
REMARK    7  A    between atoms: _12  and  _15
REMARK    8  A    between atoms: _15  and  _16
REMARK    9  A    between atoms: _16  and  _17
REMARK   10  A    between atoms: _17  and  _18
REMARK   11  A    between atoms: _27  and  _29
REMARK   12  A    between atoms: _29  and  _30
REMARK   13  A    between atoms: _29  and  _32
REMARK   14  A    between atoms: _32  and  _33
REMARK   15  A    between atoms: _43  and  _45
REMARK   16  A    between atoms: _45  and  _46
REMARK   17  A    between atoms: _45  and  _48
REMARK   18  A    between atoms: _48  and  _49
REMARK   19  A    between atoms: _52  and  _54
REMARK   20  A    between atoms: _54  and  _55
REMARK   21  A    between atoms: _54  and  _57
REMARK   22  A    between atoms: _57  and  _58
REMARK   23  A    between atoms: _61  and  _63
REMARK   24  A    between atoms: _63  and  _64
REMARK   25  A    between atoms: _63  and  _66
REMARK   26  A    between atoms: _66  and  _67
REMARK   27  A    between atoms: _69  and  _71
REMARK   28  A    between atoms: _71  and  _72
REMARK   29  A    between atoms: _71  and  _74
REMARK   30  A    between atoms: _74  and  _75
REMARK   31  A    between atoms: _78  and  _80
REMARK   32  A    between atoms: _80  and  _81
REMARK   33  A    between atoms: _83  and  _85
REMARK   34  A    between atoms: _85  and  _86
REMARK   35  A    between atoms: _85  and  _88
REMARK   36  A    between atoms: _88  and  _89
REMARK   37  A    between atoms: _94  and  _96
REMARK   38  A    between atoms: _96  and  _97
REMARK   39  A    between atoms: _99  and  _101
REMARK   40  A    between atoms: _101  and  _102
REMARK   41  A    between atoms: _101  and  _104
REMARK   42  A    between atoms: _104  and  _105
REMARK   43  A    between atoms: _105  and  _106
REMARK   44  A    between atoms: _108  and  _110
REMARK   45  A    between atoms: _110  and  _111
REMARK   46  A    between atoms: _110  and  _113
REMARK   47  A    between atoms: _113  and  _114
REMARK   48  A    between atoms: _119  and  _120
REMARK   49  A    between atoms: _122  and  _124
REMARK   50  A    between atoms: _124  and  _125
REMARK   51  A    between atoms: _124  and  _127
REMARK   52  A    between atoms: _127  and  _128
REMARK   53  A    between atoms: _131  and  _133
REMARK   54  A    between atoms: _133  and  _134
REMARK   55  A    between atoms: _133  and  _136
REMARK   56  A    between atoms: _136  and  _137
REMARK   57  A    between atoms: _139  and  _141
REMARK   58  A    between atoms: _141  and  _142
REMARK   59  A    between atoms: _141  and  _144
REMARK   60  A    between atoms: _144  and  _145
REMARK   61  A    between atoms: _148  and  _150
REMARK   62  A    between atoms: _150  and  _151
REMARK   63  A    between atoms: _150  and  _153
REMARK   64  A    between atoms: _153  and  _154
REMARK   65  A    between atoms: _154  and  _155
REMARK   66  A    between atoms: _155  and  _156
REMARK   67  A    between atoms: _165  and  _167
REMARK   68  A    between atoms: _167  and  _168
REMARK   69  A    between atoms: _167  and  _170
REMARK   70  A    between atoms: _170  and  _171
REMARK   71  A    between atoms: _177  and  _179
REMARK   72  A    between atoms: _179  and  _180
REMARK   73  A    between atoms: _179  and  _182
REMARK   74  A    between atoms: _182  and  _183
REMARK   75  A    between atoms: _193  and  _195
REMARK   76  A    between atoms: _195  and  _196
REMARK   77  A    between atoms: _195  and  _198
REMARK   78  A    between atoms: _201  and  _203
REMARK   79  A    between atoms: _203  and  _204
REMARK   80  A    between atoms: _203  and  _206
REMARK   81  A    between atoms: _206  and  _207
REMARK   82  A    between atoms: _210  and  _212
REMARK   83  A    between atoms: _212  and  _213
REMARK   84  A    between atoms: _215  and  _217
REMARK   85  A    between atoms: _217  and  _218
REMARK   86  A    between atoms: _217  and  _220
REMARK   87  A    between atoms: _220  and  _221
REMARK   88  A    between atoms: _223  and  _225
REMARK   89  A    between atoms: _225  and  _226
REMARK   90  A    between atoms: _225  and  _228
REMARK   91  A    between atoms: _228  and  _229
REMARK   92  A    between atoms: _239  and  _241
REMARK   93  A    between atoms: _241  and  _242
REMARK   94  A    between atoms: _241  and  _244
REMARK   95  A    between atoms: _244  and  _245
REMARK   96  A    between atoms: _247  and  _249
REMARK   97  A    between atoms: _249  and  _250
REMARK   98  A    between atoms: _249  and  _252
REMARK   99  A    between atoms: _252  and  _253
REMARK  100  A    between atoms: _256  and  _258
REMARK  101  A    between atoms: _258  and  _259
REMARK  102  A    between atoms: _262  and  _264
REMARK  103  A    between atoms: _264  and  _265
REMARK  104  A    between atoms: _264  and  _267
REMARK  105  A    between atoms: _267  and  _268
REMARK  106  A    between atoms: _270  and  _272
REMARK  107  A    between atoms: _272  and  _273
REMARK  108  A    between atoms: _272  and  _275
REMARK  109  A    between atoms: _275  and  _276
REMARK  110  A    between atoms: _276  and  _277
REMARK  111  A    between atoms: _281  and  _282
REMARK  112  A    between atoms: _287  and  _289
REMARK  113  A    between atoms: _289  and  _290
REMARK  114  A    between atoms: _289  and  _292
REMARK  115  A    between atoms: _292  and  _293
REMARK  116  A    between atoms: _295  and  _297
REMARK  117  A    between atoms: _297  and  _298
REMARK  118  A    between atoms: _297  and  _300
REMARK  119  A    between atoms: _300  and  _301
REMARK  120  A    between atoms: _301  and  _302
REMARK  121  A    between atoms: _307  and  _309
REMARK  122  A    between atoms: _309  and  _310
REMARK  123  A    between atoms: _309  and  _312
REMARK  124  A    between atoms: _312  and  _313
REMARK  125  A    between atoms: _316  and  _318
REMARK  126  A    between atoms: _318  and  _319
REMARK  127  A    between atoms: _318  and  _321
REMARK  128  A    between atoms: _321  and  _322
REMARK  129  A    between atoms: _325  and  _327
REMARK  130  A    between atoms: _327  and  _328
REMARK  131  A    between atoms: _327  and  _330
REMARK  132  A    between atoms: _330  and  _331
REMARK  133  A    between atoms: _336  and  _337
REMARK  134  A    between atoms: _339  and  _341
REMARK  135  A    between atoms: _341  and  _342
REMARK  136  A    between atoms: _341  and  _344
REMARK  137  A    between atoms: _344  and  _345
REMARK  138  A    between atoms: _351  and  _353
REMARK  139  A    between atoms: _353  and  _354
REMARK  140  A    between atoms: _353  and  _356
REMARK  141  A    between atoms: _356  and  _357
REMARK  142  A    between atoms: _357  and  _358
REMARK                            x       y       z     vdW  Elec       q    Type
REMARK                         _______ _______ _______ _____ _____    ______ ____
ROOT
ATOM      1  O   HOH     1       4.279  14.384  -0.867  0.00  0.00    +0.000 OA
ENDROOT
TORSDOF 0
REMARK  Name = ../refined-set-2016/3dri/3dri_pocket.pdb
REMARK  142 active torsions:
REMARK  status: ('A' for Active; 'I' for Inactive)
REMARK    1  A    between atoms: _1  and  _3
REMARK    2  A    between atoms: _3  and  _4
REMARK    3  A    between atoms: _3  and  _6
REMARK    4  A    between atoms: _6  and  _7
REMARK    5  A    between atoms: _10  and  _12
REMARK    6  A    between atoms: _12  and  _13
REMARK    7  A    between atoms: _12  and  _15
REMARK    8  A    between atoms: _15  and  _16
REMARK    9  A    between atoms: _16  and  _17
REMARK   10  A    between atoms: _17  and  _18
REMARK   11  A    between atoms: _27  and  _29
REMARK   12  A    between atoms: _29  and  _30
REMARK   13  A    between atoms: _29  and  _32
REMARK   14  A    between atoms: _32  and  _33
REMARK   15  A    between atoms: _43  and  _45
REMARK   16  A    between atoms: _45  and  _46
REMARK   17  A    between atoms: _45  and  _48
REMARK   18  A    between atoms: _48  and  _49
REMARK   19  A    between atoms: _52  and  _54
REMARK   20  A    between atoms: _54  and  _55
REMARK   21  A    between atoms: _54  and  _57
REMARK   22  A    between atoms: _57  and  _58
REMARK   23  A    between atoms: _61  and  _63
REMARK   24  A    between atoms: _63  and  _64
REMARK   25  A    between atoms: _63  and  _66
REMARK   26  A    between atoms: _66  and  _67
REMARK   27  A    between atoms: _69  and  _71
REMARK   28  A    between atoms: _71  and  _72
REMARK   29  A    between atoms: _71  and  _74
REMARK   30  A    between atoms: _74  and  _75
REMARK   31  A    between atoms: _78  and  _80
REMARK   32  A    between atoms: _80  and  _81
REMARK   33  A    between atoms: _83  and  _85
REMARK   34  A    between atoms: _85  and  _86
REMARK   35  A    between atoms: _85  and  _88
REMARK   36  A    between atoms: _88  and  _89
REMARK   37  A    between atoms: _94  and  _96
REMARK   38  A    between atoms: _96  and  _97
REMARK   39  A    between atoms: _99  and  _101
REMARK   40  A    between atoms: _101  and  _102
REMARK   41  A    between atoms: _101  and  _104
REMARK   42  A    between atoms: _104  and  _105
REMARK   43  A    between atoms: _105  and  _106
REMARK   44  A    between atoms: _108  and  _110
REMARK   45  A    between atoms: _110  and  _111
REMARK   46  A    between atoms: _110  and  _113
REMARK   47  A    between atoms: _113  and  _114
REMARK   48  A    between atoms: _119  and  _120
REMARK   49  A    between atoms: _122  and  _124
REMARK   50  A    between atoms: _124  and  _125
REMARK   51  A    between atoms: _124  and  _127
REMARK   52  A    between atoms: _127  and  _128
REMARK   53  A    between atoms: _131  and  _133
REMARK   54  A    between atoms: _133  and  _134
REMARK   55  A    between atoms: _133  and  _136
REMARK   56  A    between atoms: _136  and  _137
REMARK   57  A    between atoms: _139  and  _141
REMARK   58  A    between atoms: _141  and  _142
REMARK   59  A    between atoms: _141  and  _144
REMARK   60  A    between atoms: _144  and  _145
REMARK   61  A    between atoms: _148  and  _150
REMARK   62  A    between atoms: _150  and  _151
REMARK   63  A    between atoms: _150  and  _153
REMARK   64  A    between atoms: _153  and  _154
REMARK   65  A    between atoms: _154  and  _155
REMARK   66  A    between atoms: _155  and  _156
REMARK   67  A    between atoms: _165  and  _167
REMARK   68  A    between atoms: _167  and  _168
REMARK   69  A    between atoms: _167  and  _170
REMARK   70  A    between atoms: _170  and  _171
REMARK   71  A    between atoms: _177  and  _179
REMARK   72  A    between atoms: _179  and  _180
REMARK   73  A    between atoms: _179  and  _182
REMARK   74  A    between atoms: _182  and  _183
REMARK   75  A    between atoms: _193  and  _195
REMARK   76  A    between atoms: _195  and  _196
REMARK   77  A    between atoms: _195  and  _198
REMARK   78  A    between atoms: _201  and  _203
REMARK   79  A    between atoms: _203  and  _204
REMARK   80  A    between atoms: _203  and  _206
REMARK   81  A    between atoms: _206  and  _207
REMARK   82  A    between atoms: _210  and  _212
REMARK   83  A    between atoms: _212  and  _213
REMARK   84  A    between atoms: _215  and  _217
REMARK   85  A    between atoms: _217  and  _218
REMARK   86  A    between atoms: _217  and  _220
REMARK   87  A    between atoms: _220  and  _221
REMARK   88  A    between atoms: _223  and  _225
REMARK   89  A    between atoms: _225  and  _226
REMARK   90  A    between atoms: _225  and  _228
REMARK   91  A    between atoms: _228  and  _229
REMARK   92  A    between atoms: _239  and  _241
REMARK   93  A    between atoms: _241  and  _242
REMARK   94  A    between atoms: _241  and  _244
REMARK   95  A    between atoms: _244  and  _245
REMARK   96  A    between atoms: _247  and  _249
REMARK   97  A    between atoms: _249  and  _250
REMARK   98  A    between atoms: _249  and  _252
REMARK   99  A    between atoms: _252  and  _253
REMARK  100  A    between atoms: _256  and  _258
REMARK  101  A    between atoms: _258  and  _259
REMARK  102  A    between atoms: _262  and  _264
REMARK  103  A    between atoms: _264  and  _265
REMARK  104  A    between atoms: _264  and  _267
REMARK  105  A    between atoms: _267  and  _268
REMARK  106  A    between atoms: _270  and  _272
REMARK  107  A    between atoms: _272  and  _273
REMARK  108  A    between atoms: _272  and  _275
REMARK  109  A    between atoms: _275  and  _276
REMARK  110  A    between atoms: _276  and  _277
REMARK  111  A    between atoms: _281  and  _282
REMARK  112  A    between atoms: _287  and  _289
REMARK  113  A    between atoms: _289  and  _290
REMARK  114  A    between atoms: _289  and  _292
REMARK  115  A    between atoms: _292  and  _293
REMARK  116  A    between atoms: _295  and  _297
REMARK  117  A    between atoms: _297  and  _298
REMARK  118  A    between atoms: _297  and  _300
REMARK  119  A    between atoms: _300  and  _301
REMARK  120  A    between atoms: _301  and  _302
REMARK  121  A    between atoms: _307  and  _309
REMARK  122  A    between atoms: _309  and  _310
REMARK  123  A    between atoms: _309  and  _312
REMARK  124  A    between atoms: _312  and  _313
REMARK  125  A    between atoms: _316  and  _318
REMARK  126  A    between atoms: _318  and  _319
REMARK  127  A    between atoms: _318  and  _321
REMARK  128  A    between atoms: _321  and  _322
REMARK  129  A    between atoms: _325  and  _327
REMARK  130  A    between atoms: _327  and  _328
REMARK  131  A    between atoms: _327  and  _330
REMARK  132  A    between atoms: _330  and  _331
REMARK  133  A    between atoms: _336  and  _337
REMARK  134  A    between atoms: _339  and  _341
REMARK  135  A    between atoms: _341  and  _342
REMARK  136  A    between atoms: _341  and  _344
REMARK  137  A    between atoms: _344  and  _345
REMARK  138  A    between atoms: _351  and  _353
REMARK  139  A    between atoms: _353  and  _354
REMARK  140  A    between atoms: _353  and  _356
REMARK  141  A    between atoms: _356  and  _357
REMARK  142  A    between atoms: _357  and  _358
REMARK                            x       y       z     vdW  Elec       q    Type
REMARK                         _______ _______ _______ _____ _____    ______ ____
ROOT
ATOM      1  O   HOH     1       5.798  24.151  -5.613  0.00  0.00    +0.000 OA
ENDROOT
TORSDOF 0
REMARK  Name = ../refined-set-2016/3dri/3dri_pocket.pdb
REMARK  142 active torsions:
REMARK  status: ('A' for Active; 'I' for Inactive)
REMARK    1  A    between atoms: _1  and  _3
REMARK    2  A    between atoms: _3  and  _4
REMARK    3  A    between atoms: _3  and  _6
REMARK    4  A    between atoms: _6  and  _7
REMARK    5  A    between atoms: _10  and  _12
REMARK    6  A    between atoms: _12  and  _13
REMARK    7  A    between atoms: _12  and  _15
REMARK    8  A    between atoms: _15  and  _16
REMARK    9  A    between atoms: _16  and  _17
REMARK   10  A    between atoms: _17  and  _18
REMARK   11  A    between atoms: _27  and  _29
REMARK   12  A    between atoms: _29  and  _30
REMARK   13  A    between atoms: _29  and  _32
REMARK   14  A    between atoms: _32  and  _33
REMARK   15  A    between atoms: _43  and  _45
REMARK   16  A    between atoms: _45  and  _46
REMARK   17  A    between atoms: _45  and  _48
REMARK   18  A    between atoms: _48  and  _49
REMARK   19  A    between atoms: _52  and  _54
REMARK   20  A    between atoms: _54  and  _55
REMARK   21  A    between atoms: _54  and  _57
REMARK   22  A    between atoms: _57  and  _58
REMARK   23  A    between atoms: _61  and  _63
REMARK   24  A    between atoms: _63  and  _64
REMARK   25  A    between atoms: _63  and  _66
REMARK   26  A    between atoms: _66  and  _67
REMARK   27  A    between atoms: _69  and  _71
REMARK   28  A    between atoms: _71  and  _72
REMARK   29  A    between atoms: _71  and  _74
REMARK   30  A    between atoms: _74  and  _75
REMARK   31  A    between atoms: _78  and  _80
REMARK   32  A    between atoms: _80  and  _81
REMARK   33  A    between atoms: _83  and  _85
REMARK   34  A    between atoms: _85  and  _86
REMARK   35  A    between atoms: _85  and  _88
REMARK   36  A    between atoms: _88  and  _89
REMARK   37  A    between atoms: _94  and  _96
REMARK   38  A    between atoms: _96  and  _97
REMARK   39  A    between atoms: _99  and  _101
REMARK   40  A    between atoms: _101  and  _102
REMARK   41  A    between atoms: _101  and  _104
REMARK   42  A    between atoms: _104  and  _105
REMARK   43  A    between atoms: _105  and  _106
REMARK   44  A    between atoms: _108  and  _110
REMARK   45  A    between atoms: _110  and  _111
REMARK   46  A    between atoms: _110  and  _113
REMARK   47  A    between atoms: _113  and  _114
REMARK   48  A    between atoms: _119  and  _120
REMARK   49  A    between atoms: _122  and  _124
REMARK   50  A    between atoms: _124  and  _125
REMARK   51  A    between atoms: _124  and  _127
REMARK   52  A    between atoms: _127  and  _128
REMARK   53  A    between atoms: _131  and  _133
REMARK   54  A    between atoms: _133  and  _134
REMARK   55  A    between atoms: _133  and  _136
REMARK   56  A    between atoms: _136  and  _137
REMARK   57  A    between atoms: _139  and  _141
REMARK   58  A    between atoms: _141  and  _142
REMARK   59  A    between atoms: _141  and  _144
REMARK   60  A    between atoms: _144  and  _145
REMARK   61  A    between atoms: _148  and  _150
REMARK   62  A    between atoms: _150  and  _151
REMARK   63  A    between atoms: _150  and  _153
REMARK   64  A    between atoms: _153  and  _154
REMARK   65  A    between atoms: _154  and  _155
REMARK   66  A    between atoms: _155  and  _156
REMARK   67  A    between atoms: _165  and  _167
REMARK   68  A    between atoms: _167  and  _168
REMARK   69  A    between atoms: _167  and  _170
REMARK   70  A    between atoms: _170  and  _171
REMARK   71  A    between atoms: _177  and  _179
REMARK   72  A    between atoms: _179  and  _180
REMARK   73  A    between atoms: _179  and  _182
REMARK   74  A    between atoms: _182  and  _183
REMARK   75  A    between atoms: _193  and  _195
REMARK   76  A    between atoms: _195  and  _196
REMARK   77  A    between atoms: _195  and  _198
REMARK   78  A    between atoms: _201  and  _203
REMARK   79  A    between atoms: _203  and  _204
REMARK   80  A    between atoms: _203  and  _206
REMARK   81  A    between atoms: _206  and  _207
REMARK   82  A    between atoms: _210  and  _212
REMARK   83  A    between atoms: _212  and  _213
REMARK   84  A    between atoms: _215  and  _217
REMARK   85  A    between atoms: _217  and  _218
REMARK   86  A    between atoms: _217  and  _220
REMARK   87  A    between atoms: _220  and  _221
REMARK   88  A    between atoms: _223  and  _225
REMARK   89  A    between atoms: _225  and  _226
REMARK   90  A    between atoms: _225  and  _228
REMARK   91  A    between atoms: _228  and  _229
REMARK   92  A    between atoms: _239  and  _241
REMARK   93  A    between atoms: _241  and  _242
REMARK   94  A    between atoms: _241  and  _244
REMARK   95  A    between atoms: _244  and  _245
REMARK   96  A    between atoms: _247  and  _249
REMARK   97  A    between atoms: _249  and  _250
REMARK   98  A    between atoms: _249  and  _252
REMARK   99  A    between atoms: _252  and  _253
REMARK  100  A    between atoms: _256  and  _258
REMARK  101  A    between atoms: _258  and  _259
REMARK  102  A    between atoms: _262  and  _264
REMARK  103  A    between atoms: _264  and  _265
REMARK  104  A    between atoms: _264  and  _267
REMARK  105  A    between atoms: _267  and  _268
REMARK  106  A    between atoms: _270  and  _272
REMARK  107  A    between atoms: _272  and  _273
REMARK  108  A    between atoms: _272  and  _275
REMARK  109  A    between atoms: _275  and  _276
REMARK  110  A    between atoms: _276  and  _277
REMARK  111  A    between atoms: _281  and  _282
REMARK  112  A    between atoms: _287  and  _289
REMARK  113  A    between atoms: _289  and  _290
REMARK  114  A    between atoms: _289  and  _292
REMARK  115  A    between atoms: _292  and  _293
REMARK  116  A    between atoms: _295  and  _297
REMARK  117  A    between atoms: _297  and  _298
REMARK  118  A    between atoms: _297  and  _300
REMARK  119  A    between atoms: _300  and  _301
REMARK  120  A    between atoms: _301  and  _302
REMARK  121  A    between atoms: _307  and  _309
REMARK  122  A    between atoms: _309  and  _310
REMARK  123  A    between atoms: _309  and  _312
REMARK  124  A    between atoms: _312  and  _313
REMARK  125  A    between atoms: _316  and  _318
REMARK  126  A    between atoms: _318  and  _319
REMARK  127  A    between atoms: _318  and  _321
REMARK  128  A    between atoms: _321  and  _322
REMARK  129  A    between atoms: _325  and  _327
REMARK  130  A    between atoms: _327  and  _328
REMARK  131  A    between atoms: _327  and  _330
REMARK  132  A    between atoms: _330  and  _331
REMARK  133  A    between atoms: _336  and  _337
REMARK  134  A    between atoms: _339  and  _341
REMARK  135  A    between atoms: _341  and  _342
REMARK  136  A    between atoms: _341  and  _344
REMARK  137  A    between atoms: _344  and  _345
REMARK  138  A    between atoms: _351  and  _353
REMARK  139  A    between atoms: _353  and  _354
REMARK  140  A    between atoms: _353  and  _356
REMARK  141  A    between atoms: _356  and  _357
REMARK  142  A    between atoms: _357  and  _358
REMARK                            x       y       z     vdW  Elec       q    Type
REMARK                         _______ _______ _______ _____ _____    ______ ____
ROOT
ATOM      1  O   HOH     1      -2.385  12.954  -6.751  0.00  0.00    +0.000 OA
ENDROOT
TORSDOF 0
REMARK  Name = ../refined-set-2016/3dri/3dri_pocket.pdb
REMARK  142 active torsions:
REMARK  status: ('A' for Active; 'I' for Inactive)
REMARK    1  A    between atoms: _1  and  _3
REMARK    2  A    between atoms: _3  and  _4
REMARK    3  A    between atoms: _3  and  _6
REMARK    4  A    between atoms: _6  and  _7
REMARK    5  A    between atoms: _10  and  _12
REMARK    6  A    between atoms: _12  and  _13
REMARK    7  A    between atoms: _12  and  _15
REMARK    8  A    between atoms: _15  and  _16
REMARK    9  A    between atoms: _16  and  _17
REMARK   10  A    between atoms: _17  and  _18
REMARK   11  A    between atoms: _27  and  _29
REMARK   12  A    between atoms: _29  and  _30
REMARK   13  A    between atoms: _29  and  _32
REMARK   14  A    between atoms: _32  and  _33
REMARK   15  A    between atoms: _43  and  _45
REMARK   16  A    between atoms: _45  and  _46
REMARK   17  A    between atoms: _45  and  _48
REMARK   18  A    between atoms: _48  and  _49
REMARK   19  A    between atoms: _52  and  _54
REMARK   20  A    between atoms: _54  and  _55
REMARK   21  A    between atoms: _54  and  _57
REMARK   22  A    between atoms: _57  and  _58
REMARK   23  A    between atoms: _61  and  _63
REMARK   24  A    between atoms: _63  and  _64
REMARK   25  A    between atoms: _63  and  _66
REMARK   26  A    between atoms: _66  and  _67
REMARK   27  A    between atoms: _69  and  _71
REMARK   28  A    between atoms: _71  and  _72
REMARK   29  A    between atoms: _71  and  _74
REMARK   30  A    between atoms: _74  and  _75
REMARK   31  A    between atoms: _78  and  _80
REMARK   32  A    between atoms: _80  and  _81
REMARK   33  A    between atoms: _83  and  _85
REMARK   34  A    between atoms: _85  and  _86
REMARK   35  A    between atoms: _85  and  _88
REMARK   36  A    between atoms: _88  and  _89
REMARK   37  A    between atoms: _94  and  _96
REMARK   38  A    between atoms: _96  and  _97
REMARK   39  A    between atoms: _99  and  _101
REMARK   40  A    between atoms: _101  and  _102
REMARK   41  A    between atoms: _101  and  _104
REMARK   42  A    between atoms: _104  and  _105
REMARK   43  A    between atoms: _105  and  _106
REMARK   44  A    between atoms: _108  and  _110
REMARK   45  A    between atoms: _110  and  _111
REMARK   46  A    between atoms: _110  and  _113
REMARK   47  A    between atoms: _113  and  _114
REMARK   48  A    between atoms: _119  and  _120
REMARK   49  A    between atoms: _122  and  _124
REMARK   50  A    between atoms: _124  and  _125
REMARK   51  A    between atoms: _124  and  _127
REMARK   52  A    between atoms: _127  and  _128
REMARK   53  A    between atoms: _131  and  _133
REMARK   54  A    between atoms: _133  and  _134
REMARK   55  A    between atoms: _133  and  _136
REMARK   56  A    between atoms: _136  and  _137
REMARK   57  A    between atoms: _139  and  _141
REMARK   58  A    between atoms: _141  and  _142
REMARK   59  A    between atoms: _141  and  _144
REMARK   60  A    between atoms: _144  and  _145
REMARK   61  A    between atoms: _148  and  _150
REMARK   62  A    between atoms: _150  and  _151
REMARK   63  A    between atoms: _150  and  _153
REMARK   64  A    between atoms: _153  and  _154
REMARK   65  A    between atoms: _154  and  _155
REMARK   66  A    between atoms: _155  and  _156
REMARK   67  A    between atoms: _165  and  _167
REMARK   68  A    between atoms: _167  and  _168
REMARK   69  A    between atoms: _167  and  _170
REMARK   70  A    between atoms: _170  and  _171
REMARK   71  A    between atoms: _177  and  _179
REMARK   72  A    between atoms: _179  and  _180
REMARK   73  A    between atoms: _179  and  _182
REMARK   74  A    between atoms: _182  and  _183
REMARK   75  A    between atoms: _193  and  _195
REMARK   76  A    between atoms: _195  and  _196
REMARK   77  A    between atoms: _195  and  _198
REMARK   78  A    between atoms: _201  and  _203
REMARK   79  A    between atoms: _203  and  _204
REMARK   80  A    between atoms: _203  and  _206
REMARK   81  A    between atoms: _206  and  _207
REMARK   82  A    between atoms: _210  and  _212
REMARK   83  A    between atoms: _212  and  _213
REMARK   84  A    between atoms: _215  and  _217
REMARK   85  A    between atoms: _217  and  _218
REMARK   86  A    between atoms: _217  and  _220
REMARK   87  A    between atoms: _220  and  _221
REMARK   88  A    between atoms: _223  and  _225
REMARK   89  A    between atoms: _225  and  _226
REMARK   90  A    between atoms: _225  and  _228
REMARK   91  A    between atoms: _228  and  _229
REMARK   92  A    between atoms: _239  and  _241
REMARK   93  A    between atoms: _241  and  _242
REMARK   94  A    between atoms: _241  and  _244
REMARK   95  A    between atoms: _244  and  _245
REMARK   96  A    between atoms: _247  and  _249
REMARK   97  A    between atoms: _249  and  _250
REMARK   98  A    between atoms: _249  and  _252
REMARK   99  A    between atoms: _252  and  _253
REMARK  100  A    between atoms: _256  and  _258
REMARK  101  A    between atoms: _258  and  _259
REMARK  102  A    between atoms: _262  and  _264
REMARK  103  A    between atoms: _264  and  _265
REMARK  104  A    between atoms: _264  and  _267
REMARK  105  A    between atoms: _267  and  _268
REMARK  106  A    between atoms: _270  and  _272
REMARK  107  A    between atoms: _272  and  _273
REMARK  108  A    between atoms: _272  and  _275
REMARK  109  A    between atoms: _275  and  _276
REMARK  110  A    between atoms: _276  and  _277
REMARK  111  A    between atoms: _281  and  _282
REMARK  112  A    between atoms: _287  and  _289
REMARK  113  A    between atoms: _289  and  _290
REMARK  114  A    between atoms: _289  and  _292
REMARK  115  A    between atoms: _292  and  _293
REMARK  116  A    between atoms: _295  and  _297
REMARK  117  A    between atoms: _297  and  _298
REMARK  118  A    between atoms: _297  and  _300
REMARK  119  A    between atoms: _300  and  _301
REMARK  120  A    between atoms: _301  and  _302
REMARK  121  A    between atoms: _307  and  _309
REMARK  122  A    between atoms: _309  and  _310
REMARK  123  A    between atoms: _309  and  _312
REMARK  124  A    between atoms: _312  and  _313
REMARK  125  A    between atoms: _316  and  _318
REMARK  126  A    between atoms: _318  and  _319
REMARK  127  A    between atoms: _318  and  _321
REMARK  128  A    between atoms: _321  and  _322
REMARK  129  A    between atoms: _325  and  _327
REMARK  130  A    between atoms: _327  and  _328
REMARK  131  A    between atoms: _327  and  _330
REMARK  132  A    between atoms: _330  and  _331
REMARK  133  A    between atoms: _336  and  _337
REMARK  134  A    between atoms: _339  and  _341
REMARK  135  A    between atoms: _341  and  _342
REMARK  136  A    between atoms: _341  and  _344
REMARK  137  A    between atoms: _344  and  _345
REMARK  138  A    between atoms: _351  and  _353
REMARK  139  A    between atoms: _353  and  _354
REMARK  140  A    between atoms: _353  and  _356
REMARK  141  A    between atoms: _356  and  _357
REMARK  142  A    between atoms: _357  and  _358
REMARK                            x       y       z     vdW  Elec       q    Type
REMARK                         _______ _______ _______ _____ _____    ______ ____
ROOT
ATOM      1  O   HOH     1       1.063  25.445   0.231  0.00  0.00    +0.000 OA
ENDROOT
TORSDOF 0
REMARK  Name = ../refined-set-2016/3dri/3dri_pocket.pdb
REMARK  142 active torsions:
REMARK  status: ('A' for Active; 'I' for Inactive)
REMARK    1  A    between atoms: _1  and  _3
REMARK    2  A    between atoms: _3  and  _4
REMARK    3  A    between atoms: _3  and  _6
REMARK    4  A    between atoms: _6  and  _7
REMARK    5  A    between atoms: _10  and  _12
REMARK    6  A    between atoms: _12  and  _13
REMARK    7  A    between atoms: _12  and  _15
REMARK    8  A    between atoms: _15  and  _16
REMARK    9  A    between atoms: _16  and  _17
REMARK   10  A    between atoms: _17  and  _18
REMARK   11  A    between atoms: _27  and  _29
REMARK   12  A    between atoms: _29  and  _30
REMARK   13  A    between atoms: _29  and  _32
REMARK   14  A    between atoms: _32  and  _33
REMARK   15  A    between atoms: _43  and  _45
REMARK   16  A    between atoms: _45  and  _46
REMARK   17  A    between atoms: _45  and  _48
REMARK   18  A    between atoms: _48  and  _49
REMARK   19  A    between atoms: _52  and  _54
REMARK   20  A    between atoms: _54  and  _55
REMARK   21  A    between atoms: _54  and  _57
REMARK   22  A    between atoms: _57  and  _58
REMARK   23  A    between atoms: _61  and  _63
REMARK   24  A    between atoms: _63  and  _64
REMARK   25  A    between atoms: _63  and  _66
REMARK   26  A    between atoms: _66  and  _67
REMARK   27  A    between atoms: _69  and  _71
REMARK   28  A    between atoms: _71  and  _72
REMARK   29  A    between atoms: _71  and  _74
REMARK   30  A    between atoms: _74  and  _75
REMARK   31  A    between atoms: _78  and  _80
REMARK   32  A    between atoms: _80  and  _81
REMARK   33  A    between atoms: _83  and  _85
REMARK   34  A    between atoms: _85  and  _86
REMARK   35  A    between atoms: _85  and  _88
REMARK   36  A    between atoms: _88  and  _89
REMARK   37  A    between atoms: _94  and  _96
REMARK   38  A    between atoms: _96  and  _97
REMARK   39  A    between atoms: _99  and  _101
REMARK   40  A    between atoms: _101  and  _102
REMARK   41  A    between atoms: _101  and  _104
REMARK   42  A    between atoms: _104  and  _105
REMARK   43  A    between atoms: _105  and  _106
REMARK   44  A    between atoms: _108  and  _110
REMARK   45  A    between atoms: _110  and  _111
REMARK   46  A    between atoms: _110  and  _113
REMARK   47  A    between atoms: _113  and  _114
REMARK   48  A    between atoms: _119  and  _120
REMARK   49  A    between atoms: _122  and  _124
REMARK   50  A    between atoms: _124  and  _125
REMARK   51  A    between atoms: _124  and  _127
REMARK   52  A    between atoms: _127  and  _128
REMARK   53  A    between atoms: _131  and  _133
REMARK   54  A    between atoms: _133  and  _134
REMARK   55  A    between atoms: _133  and  _136
REMARK   56  A    between atoms: _136  and  _137
REMARK   57  A    between atoms: _139  and  _141
REMARK   58  A    between atoms: _141  and  _142
REMARK   59  A    between atoms: _141  and  _144
REMARK   60  A    between atoms: _144  and  _145
REMARK   61  A    between atoms: _148  and  _150
REMARK   62  A    between atoms: _150  and  _151
REMARK   63  A    between atoms: _150  and  _153
REMARK   64  A    between atoms: _153  and  _154
REMARK   65  A    between atoms: _154  and  _155
REMARK   66  A    between atoms: _155  and  _156
REMARK   67  A    between atoms: _165  and  _167
REMARK   68  A    between atoms: _167  and  _168
REMARK   69  A    between atoms: _167  and  _170
REMARK   70  A    between atoms: _170  and  _171
REMARK   71  A    between atoms: _177  and  _179
REMARK   72  A    between atoms: _179  and  _180
REMARK   73  A    between atoms: _179  and  _182
REMARK   74  A    between atoms: _182  and  _183
REMARK   75  A    between atoms: _193  and  _195
REMARK   76  A    between atoms: _195  and  _196
REMARK   77  A    between atoms: _195  and  _198
REMARK   78  A    between atoms: _201  and  _203
REMARK   79  A    between atoms: _203  and  _204
REMARK   80  A    between atoms: _203  and  _206
REMARK   81  A    between atoms: _206  and  _207
REMARK   82  A    between atoms: _210  and  _212
REMARK   83  A    between atoms: _212  and  _213
REMARK   84  A    between atoms: _215  and  _217
REMARK   85  A    between atoms: _217  and  _218
REMARK   86  A    between atoms: _217  and  _220
REMARK   87  A    between atoms: _220  and  _221
REMARK   88  A    between atoms: _223  and  _225
REMARK   89  A    between atoms: _225  and  _226
REMARK   90  A    between atoms: _225  and  _228
REMARK   91  A    between atoms: _228  and  _229
REMARK   92  A    between atoms: _239  and  _241
REMARK   93  A    between atoms: _241  and  _242
REMARK   94  A    between atoms: _241  and  _244
REMARK   95  A    between atoms: _244  and  _245
REMARK   96  A    between atoms: _247  and  _249
REMARK   97  A    between atoms: _249  and  _250
REMARK   98  A    between atoms: _249  and  _252
REMARK   99  A    between atoms: _252  and  _253
REMARK  100  A    between atoms: _256  and  _258
REMARK  101  A    between atoms: _258  and  _259
REMARK  102  A    between atoms: _262  and  _264
REMARK  103  A    between atoms: _264  and  _265
REMARK  104  A    between atoms: _264  and  _267
REMARK  105  A    between atoms: _267  and  _268
REMARK  106  A    between atoms: _270  and  _272
REMARK  107  A    between atoms: _272  and  _273
REMARK  108  A    between atoms: _272  and  _275
REMARK  109  A    between atoms: _275  and  _276
REMARK  110  A    between atoms: _276  and  _277
REMARK  111  A    between atoms: _281  and  _282
REMARK  112  A    between atoms: _287  and  _289
REMARK  113  A    between atoms: _289  and  _290
REMARK  114  A    between atoms: _289  and  _292
REMARK  115  A    between atoms: _292  and  _293
REMARK  116  A    between atoms: _295  and  _297
REMARK  117  A    between atoms: _297  and  _298
REMARK  118  A    between atoms: _297  and  _300
REMARK  119  A    between atoms: _300  and  _301
REMARK  120  A    between atoms: _301  and  _302
REMARK  121  A    between atoms: _307  and  _309
REMARK  122  A    between atoms: _309  and  _310
REMARK  123  A    between atoms: _309  and  _312
REMARK  124  A    between atoms: _312  and  _313
REMARK  125  A    between atoms: _316  and  _318
REMARK  126  A    between atoms: _318  and  _319
REMARK  127  A    between atoms: _318  and  _321
REMARK  128  A    between atoms: _321  and  _322
REMARK  129  A    between atoms: _325  and  _327
REMARK  130  A    between atoms: _327  and  _328
REMARK  131  A    between atoms: _327  and  _330
REMARK  132  A    between atoms: _330  and  _331
REMARK  133  A    between atoms: _336  and  _337
REMARK  134  A    between atoms: _339  and  _341
REMARK  135  A    between atoms: _341  and  _342
REMARK  136  A    between atoms: _341  and  _344
REMARK  137  A    between atoms: _344  and  _345
REMARK  138  A    between atoms: _351  and  _353
REMARK  139  A    between atoms: _353  and  _354
REMARK  140  A    between atoms: _353  and  _356
REMARK  141  A    between atoms: _356  and  _357
REMARK  142  A    between atoms: _357  and  _358
REMARK                            x       y       z     vdW  Elec       q    Type
REMARK                         _______ _______ _______ _____ _____    ______ ____
ROOT
ATOM      1  O   HOH     1      -1.408  22.089  17.276  0.00  0.00    +0.000 OA
ENDROOT
TORSDOF 0
REMARK  Name = ../refined-set-2016/3dri/3dri_pocket.pdb
REMARK  142 active torsions:
REMARK  status: ('A' for Active; 'I' for Inactive)
REMARK    1  A    between atoms: _1  and  _3
REMARK    2  A    between atoms: _3  and  _4
REMARK    3  A    between atoms: _3  and  _6
REMARK    4  A    between atoms: _6  and  _7
REMARK    5  A    between atoms: _10  and  _12
REMARK    6  A    between atoms: _12  and  _13
REMARK    7  A    between atoms: _12  and  _15
REMARK    8  A    between atoms: _15  and  _16
REMARK    9  A    between atoms: _16  and  _17
REMARK   10  A    between atoms: _17  and  _18
REMARK   11  A    between atoms: _27  and  _29
REMARK   12  A    between atoms: _29  and  _30
REMARK   13  A    between atoms: _29  and  _32
REMARK   14  A    between atoms: _32  and  _33
REMARK   15  A    between atoms: _43  and  _45
REMARK   16  A    between atoms: _45  and  _46
REMARK   17  A    between atoms: _45  and  _48
REMARK   18  A    between atoms: _48  and  _49
REMARK   19  A    between atoms: _52  and  _54
REMARK   20  A    between atoms: _54  and  _55
REMARK   21  A    between atoms: _54  and  _57
REMARK   22  A    between atoms: _57  and  _58
REMARK   23  A    between atoms: _61  and  _63
REMARK   24  A    between atoms: _63  and  _64
REMARK   25  A    between atoms: _63  and  _66
REMARK   26  A    between atoms: _66  and  _67
REMARK   27  A    between atoms: _69  and  _71
REMARK   28  A    between atoms: _71  and  _72
REMARK   29  A    between atoms: _71  and  _74
REMARK   30  A    between atoms: _74  and  _75
REMARK   31  A    between atoms: _78  and  _80
REMARK   32  A    between atoms: _80  and  _81
REMARK   33  A    between atoms: _83  and  _85
REMARK   34  A    between atoms: _85  and  _86
REMARK   35  A    between atoms: _85  and  _88
REMARK   36  A    between atoms: _88  and  _89
REMARK   37  A    between atoms: _94  and  _96
REMARK   38  A    between atoms: _96  and  _97
REMARK   39  A    between atoms: _99  and  _101
REMARK   40  A    between atoms: _101  and  _102
REMARK   41  A    between atoms: _101  and  _104
REMARK   42  A    between atoms: _104  and  _105
REMARK   43  A    between atoms: _105  and  _106
REMARK   44  A    between atoms: _108  and  _110
REMARK   45  A    between atoms: _110  and  _111
REMARK   46  A    between atoms: _110  and  _113
REMARK   47  A    between atoms: _113  and  _114
REMARK   48  A    between atoms: _119  and  _120
REMARK   49  A    between atoms: _122  and  _124
REMARK   50  A    between atoms: _124  and  _125
REMARK   51  A    between atoms: _124  and  _127
REMARK   52  A    between atoms: _127  and  _128
REMARK   53  A    between atoms: _131  and  _133
REMARK   54  A    between atoms: _133  and  _134
REMARK   55  A    between atoms: _133  and  _136
REMARK   56  A    between atoms: _136  and  _137
REMARK   57  A    between atoms: _139  and  _141
REMARK   58  A    between atoms: _141  and  _142
REMARK   59  A    between atoms: _141  and  _144
REMARK   60  A    between atoms: _144  and  _145
REMARK   61  A    between atoms: _148  and  _150
REMARK   62  A    between atoms: _150  and  _151
REMARK   63  A    between atoms: _150  and  _153
REMARK   64  A    between atoms: _153  and  _154
REMARK   65  A    between atoms: _154  and  _155
REMARK   66  A    between atoms: _155  and  _156
REMARK   67  A    between atoms: _165  and  _167
REMARK   68  A    between atoms: _167  and  _168
REMARK   69  A    between atoms: _167  and  _170
REMARK   70  A    between atoms: _170  and  _171
REMARK   71  A    between atoms: _177  and  _179
REMARK   72  A    between atoms: _179  and  _180
REMARK   73  A    between atoms: _179  and  _182
REMARK   74  A    between atoms: _182  and  _183
REMARK   75  A    between atoms: _193  and  _195
REMARK   76  A    between atoms: _195  and  _196
REMARK   77  A    between atoms: _195  and  _198
REMARK   78  A    between atoms: _201  and  _203
REMARK   79  A    between atoms: _203  and  _204
REMARK   80  A    between atoms: _203  and  _206
REMARK   81  A    between atoms: _206  and  _207
REMARK   82  A    between atoms: _210  and  _212
REMARK   83  A    between atoms: _212  and  _213
REMARK   84  A    between atoms: _215  and  _217
REMARK   85  A    between atoms: _217  and  _218
REMARK   86  A    between atoms: _217  and  _220
REMARK   87  A    between atoms: _220  and  _221
REMARK   88  A    between atoms: _223  and  _225
REMARK   89  A    between atoms: _225  and  _226
REMARK   90  A    between atoms: _225  and  _228
REMARK   91  A    between atoms: _228  and  _229
REMARK   92  A    between atoms: _239  and  _241
REMARK   93  A    between atoms: _241  and  _242
REMARK   94  A    between atoms: _241  and  _244
REMARK   95  A    between atoms: _244  and  _245
REMARK   96  A    between atoms: _247  and  _249
REMARK   97  A    between atoms: _249  and  _250
REMARK   98  A    between atoms: _249  and  _252
REMARK   99  A    between atoms: _252  and  _253
REMARK  100  A    between atoms: _256  and  _258
REMARK  101  A    between atoms: _258  and  _259
REMARK  102  A    between atoms: _262  and  _264
REMARK  103  A    between atoms: _264  and  _265
REMARK  104  A    between atoms: _264  and  _267
REMARK  105  A    between atoms: _267  and  _268
REMARK  106  A    between atoms: _270  and  _272
REMARK  107  A    between atoms: _272  and  _273
REMARK  108  A    between atoms: _272  and  _275
REMARK  109  A    between atoms: _275  and  _276
REMARK  110  A    between atoms: _276  and  _277
REMARK  111  A    between atoms: _281  and  _282
REMARK  112  A    between atoms: _287  and  _289
REMARK  113  A    between atoms: _289  and  _290
REMARK  114  A    between atoms: _289  and  _292
REMARK  115  A    between atoms: _292  and  _293
REMARK  116  A    between atoms: _295  and  _297
REMARK  117  A    between atoms: _297  and  _298
REMARK  118  A    between atoms: _297  and  _300
REMARK  119  A    between atoms: _300  and  _301
REMARK  120  A    between atoms: _301  and  _302
REMARK  121  A    between atoms: _307  and  _309
REMARK  122  A    between atoms: _309  and  _310
REMARK  123  A    between atoms: _309  and  _312
REMARK  124  A    between atoms: _312  and  _313
REMARK  125  A    between atoms: _316  and  _318
REMARK  126  A    between atoms: _318  and  _319
REMARK  127  A    between atoms: _318  and  _321
REMARK  128  A    between atoms: _321  and  _322
REMARK  129  A    between atoms: _325  and  _327
REMARK  130  A    between atoms: _327  and  _328
REMARK  131  A    between atoms: _327  and  _330
REMARK  132  A    between atoms: _330  and  _331
REMARK  133  A    between atoms: _336  and  _337
REMARK  134  A    between atoms: _339  and  _341
REMARK  135  A    between atoms: _341  and  _342
REMARK  136  A    between atoms: _341  and  _344
REMARK  137  A    between atoms: _344  and  _345
REMARK  138  A    between atoms: _351  and  _353
REMARK  139  A    between atoms: _353  and  _354
REMARK  140  A    between atoms: _353  and  _356
REMARK  141  A    between atoms: _356  and  _357
REMARK  142  A    between atoms: _357  and  _358
REMARK                            x       y       z     vdW  Elec       q    Type
REMARK                         _______ _______ _______ _____ _____    ______ ____
ROOT
ATOM      1  O   HOH     1       1.553  13.855  -7.428  0.00  0.00    +0.000 OA
ENDROOT
TORSDOF 0
REMARK  Name = ../refined-set-2016/3dri/3dri_pocket.pdb
REMARK  142 active torsions:
REMARK  status: ('A' for Active; 'I' for Inactive)
REMARK    1  A    between atoms: _1  and  _3
REMARK    2  A    between atoms: _3  and  _4
REMARK    3  A    between atoms: _3  and  _6
REMARK    4  A    between atoms: _6  and  _7
REMARK    5  A    between atoms: _10  and  _12
REMARK    6  A    between atoms: _12  and  _13
REMARK    7  A    between atoms: _12  and  _15
REMARK    8  A    between atoms: _15  and  _16
REMARK    9  A    between atoms: _16  and  _17
REMARK   10  A    between atoms: _17  and  _18
REMARK   11  A    between atoms: _27  and  _29
REMARK   12  A    between atoms: _29  and  _30
REMARK   13  A    between atoms: _29  and  _32
REMARK   14  A    between atoms: _32  and  _33
REMARK   15  A    between atoms: _43  and  _45
REMARK   16  A    between atoms: _45  and  _46
REMARK   17  A    between atoms: _45  and  _48
REMARK   18  A    between atoms: _48  and  _49
REMARK   19  A    between atoms: _52  and  _54
REMARK   20  A    between atoms: _54  and  _55
REMARK   21  A    between atoms: _54  and  _57
REMARK   22  A    between atoms: _57  and  _58
REMARK   23  A    between atoms: _61  and  _63
REMARK   24  A    between atoms: _63  and  _64
REMARK   25  A    between atoms: _63  and  _66
REMARK   26  A    between atoms: _66  and  _67
REMARK   27  A    between atoms: _69  and  _71
REMARK   28  A    between atoms: _71  and  _72
REMARK   29  A    between atoms: _71  and  _74
REMARK   30  A    between atoms: _74  and  _75
REMARK   31  A    between atoms: _78  and  _80
REMARK   32  A    between atoms: _80  and  _81
REMARK   33  A    between atoms: _83  and  _85
REMARK   34  A    between atoms: _85  and  _86
REMARK   35  A    between atoms: _85  and  _88
REMARK   36  A    between atoms: _88  and  _89
REMARK   37  A    between atoms: _94  and  _96
REMARK   38  A    between atoms: _96  and  _97
REMARK   39  A    between atoms: _99  and  _101
REMARK   40  A    between atoms: _101  and  _102
REMARK   41  A    between atoms: _101  and  _104
REMARK   42  A    between atoms: _104  and  _105
REMARK   43  A    between atoms: _105  and  _106
REMARK   44  A    between atoms: _108  and  _110
REMARK   45  A    between atoms: _110  and  _111
REMARK   46  A    between atoms: _110  and  _113
REMARK   47  A    between atoms: _113  and  _114
REMARK   48  A    between atoms: _119  and  _120
REMARK   49  A    between atoms: _122  and  _124
REMARK   50  A    between atoms: _124  and  _125
REMARK   51  A    between atoms: _124  and  _127
REMARK   52  A    between atoms: _127  and  _128
REMARK   53  A    between atoms: _131  and  _133
REMARK   54  A    between atoms: _133  and  _134
REMARK   55  A    between atoms: _133  and  _136
REMARK   56  A    between atoms: _136  and  _137
REMARK   57  A    between atoms: _139  and  _141
REMARK   58  A    between atoms: _141  and  _142
REMARK   59  A    between atoms: _141  and  _144
REMARK   60  A    between atoms: _144  and  _145
REMARK   61  A    between atoms: _148  and  _150
REMARK   62  A    between atoms: _150  and  _151
REMARK   63  A    between atoms: _150  and  _153
REMARK   64  A    between atoms: _153  and  _154
REMARK   65  A    between atoms: _154  and  _155
REMARK   66  A    between atoms: _155  and  _156
REMARK   67  A    between atoms: _165  and  _167
REMARK   68  A    between atoms: _167  and  _168
REMARK   69  A    between atoms: _167  and  _170
REMARK   70  A    between atoms: _170  and  _171
REMARK   71  A    between atoms: _177  and  _179
REMARK   72  A    between atoms: _179  and  _180
REMARK   73  A    between atoms: _179  and  _182
REMARK   74  A    between atoms: _182  and  _183
REMARK   75  A    between atoms: _193  and  _195
REMARK   76  A    between atoms: _195  and  _196
REMARK   77  A    between atoms: _195  and  _198
REMARK   78  A    between atoms: _201  and  _203
REMARK   79  A    between atoms: _203  and  _204
REMARK   80  A    between atoms: _203  and  _206
REMARK   81  A    between atoms: _206  and  _207
REMARK   82  A    between atoms: _210  and  _212
REMARK   83  A    between atoms: _212  and  _213
REMARK   84  A    between atoms: _215  and  _217
REMARK   85  A    between atoms: _217  and  _218
REMARK   86  A    between atoms: _217  and  _220
REMARK   87  A    between atoms: _220  and  _221
REMARK   88  A    between atoms: _223  and  _225
REMARK   89  A    between atoms: _225  and  _226
REMARK   90  A    between atoms: _225  and  _228
REMARK   91  A    between atoms: _228  and  _229
REMARK   92  A    between atoms: _239  and  _241
REMARK   93  A    between atoms: _241  and  _242
REMARK   94  A    between atoms: _241  and  _244
REMARK   95  A    between atoms: _244  and  _245
REMARK   96  A    between atoms: _247  and  _249
REMARK   97  A    between atoms: _249  and  _250
REMARK   98  A    between atoms: _249  and  _252
REMARK   99  A    between atoms: _252  and  _253
REMARK  100  A    between atoms: _256  and  _258
REMARK  101  A    between atoms: _258  and  _259
REMARK  102  A    between atoms: _262  and  _264
REMARK  103  A    between atoms: _264  and  _265
REMARK  104  A    between atoms: _264  and  _267
REMARK  105  A    between atoms: _267  and  _268
REMARK  106  A    between atoms: _270  and  _272
REMARK  107  A    between atoms: _272  and  _273
REMARK  108  A    between atoms: _272  and  _275
REMARK  109  A    between atoms: _275  and  _276
REMARK  110  A    between atoms: _276  and  _277
REMARK  111  A    between atoms: _281  and  _282
REMARK  112  A    between atoms: _287  and  _289
REMARK  113  A    between atoms: _289  and  _290
REMARK  114  A    between atoms: _289  and  _292
REMARK  115  A    between atoms: _292  and  _293
REMARK  116  A    between atoms: _295  and  _297
REMARK  117  A    between atoms: _297  and  _298
REMARK  118  A    between atoms: _297  and  _300
REMARK  119  A    between atoms: _300  and  _301
REMARK  120  A    between atoms: _301  and  _302
REMARK  121  A    between atoms: _307  and  _309
REMARK  122  A    between atoms: _309  and  _310
REMARK  123  A    between atoms: _309  and  _312
REMARK  124  A    between atoms: _312  and  _313
REMARK  125  A    between atoms: _316  and  _318
REMARK  126  A    between atoms: _318  and  _319
REMARK  127  A    between atoms: _318  and  _321
REMARK  128  A    between atoms: _321  and  _322
REMARK  129  A    between atoms: _325  and  _327
REMARK  130  A    between atoms: _327  and  _328
REMARK  131  A    between atoms: _327  and  _330
REMARK  132  A    between atoms: _330  and  _331
REMARK  133  A    between atoms: _336  and  _337
REMARK  134  A    between atoms: _339  and  _341
REMARK  135  A    between atoms: _341  and  _342
REMARK  136  A    between atoms: _341  and  _344
REMARK  137  A    between atoms: _344  and  _345
REMARK  138  A    between atoms: _351  and  _353
REMARK  139  A    between atoms: _353  and  _354
REMARK  140  A    between atoms: _353  and  _356
REMARK  141  A    between atoms: _356  and  _357
REMARK  142  A    between atoms: _357  and  _358
REMARK                            x       y       z     vdW  Elec       q    Type
REMARK                         _______ _______ _______ _____ _____    ______ ____
ROOT
ATOM      1  O   HOH     1      -4.462  19.384  18.150  0.00  0.00    +0.000 OA
ENDROOT
TORSDOF 0
REMARK  Name = ../refined-set-2016/3dri/3dri_pocket.pdb
REMARK  142 active torsions:
REMARK  status: ('A' for Active; 'I' for Inactive)
REMARK    1  A    between atoms: _1  and  _3
REMARK    2  A    between atoms: _3  and  _4
REMARK    3  A    between atoms: _3  and  _6
REMARK    4  A    between atoms: _6  and  _7
REMARK    5  A    between atoms: _10  and  _12
REMARK    6  A    between atoms: _12  and  _13
REMARK    7  A    between atoms: _12  and  _15
REMARK    8  A    between atoms: _15  and  _16
REMARK    9  A    between atoms: _16  and  _17
REMARK   10  A    between atoms: _17  and  _18
REMARK   11  A    between atoms: _27  and  _29
REMARK   12  A    between atoms: _29  and  _30
REMARK   13  A    between atoms: _29  and  _32
REMARK   14  A    between atoms: _32  and  _33
REMARK   15  A    between atoms: _43  and  _45
REMARK   16  A    between atoms: _45  and  _46
REMARK   17  A    between atoms: _45  and  _48
REMARK   18  A    between atoms: _48  and  _49
REMARK   19  A    between atoms: _52  and  _54
REMARK   20  A    between atoms: _54  and  _55
REMARK   21  A    between atoms: _54  and  _57
REMARK   22  A    between atoms: _57  and  _58
REMARK   23  A    between atoms: _61  and  _63
REMARK   24  A    between atoms: _63  and  _64
REMARK   25  A    between atoms: _63  and  _66
REMARK   26  A    between atoms: _66  and  _67
REMARK   27  A    between atoms: _69  and  _71
REMARK   28  A    between atoms: _71  and  _72
REMARK   29  A    between atoms: _71  and  _74
REMARK   30  A    between atoms: _74  and  _75
REMARK   31  A    between atoms: _78  and  _80
REMARK   32  A    between atoms: _80  and  _81
REMARK   33  A    between atoms: _83  and  _85
REMARK   34  A    between atoms: _85  and  _86
REMARK   35  A    between atoms: _85  and  _88
REMARK   36  A    between atoms: _88  and  _89
REMARK   37  A    between atoms: _94  and  _96
REMARK   38  A    between atoms: _96  and  _97
REMARK   39  A    between atoms: _99  and  _101
REMARK   40  A    between atoms: _101  and  _102
REMARK   41  A    between atoms: _101  and  _104
REMARK   42  A    between atoms: _104  and  _105
REMARK   43  A    between atoms: _105  and  _106
REMARK   44  A    between atoms: _108  and  _110
REMARK   45  A    between atoms: _110  and  _111
REMARK   46  A    between atoms: _110  and  _113
REMARK   47  A    between atoms: _113  and  _114
REMARK   48  A    between atoms: _119  and  _120
REMARK   49  A    between atoms: _122  and  _124
REMARK   50  A    between atoms: _124  and  _125
REMARK   51  A    between atoms: _124  and  _127
REMARK   52  A    between atoms: _127  and  _128
REMARK   53  A    between atoms: _131  and  _133
REMARK   54  A    between atoms: _133  and  _134
REMARK   55  A    between atoms: _133  and  _136
REMARK   56  A    between atoms: _136  and  _137
REMARK   57  A    between atoms: _139  and  _141
REMARK   58  A    between atoms: _141  and  _142
REMARK   59  A    between atoms: _141  and  _144
REMARK   60  A    between atoms: _144  and  _145
REMARK   61  A    between atoms: _148  and  _150
REMARK   62  A    between atoms: _150  and  _151
REMARK   63  A    between atoms: _150  and  _153
REMARK   64  A    between atoms: _153  and  _154
REMARK   65  A    between atoms: _154  and  _155
REMARK   66  A    between atoms: _155  and  _156
REMARK   67  A    between atoms: _165  and  _167
REMARK   68  A    between atoms: _167  and  _168
REMARK   69  A    between atoms: _167  and  _170
REMARK   70  A    between atoms: _170  and  _171
REMARK   71  A    between atoms: _177  and  _179
REMARK   72  A    between atoms: _179  and  _180
REMARK   73  A    between atoms: _179  and  _182
REMARK   74  A    between atoms: _182  and  _183
REMARK   75  A    between atoms: _193  and  _195
REMARK   76  A    between atoms: _195  and  _196
REMARK   77  A    between atoms: _195  and  _198
REMARK   78  A    between atoms: _201  and  _203
REMARK   79  A    between atoms: _203  and  _204
REMARK   80  A    between atoms: _203  and  _206
REMARK   81  A    between atoms: _206  and  _207
REMARK   82  A    between atoms: _210  and  _212
REMARK   83  A    between atoms: _212  and  _213
REMARK   84  A    between atoms: _215  and  _217
REMARK   85  A    between atoms: _217  and  _218
REMARK   86  A    between atoms: _217  and  _220
REMARK   87  A    between atoms: _220  and  _221
REMARK   88  A    between atoms: _223  and  _225
REMARK   89  A    between atoms: _225  and  _226
REMARK   90  A    between atoms: _225  and  _228
REMARK   91  A    between atoms: _228  and  _229
REMARK   92  A    between atoms: _239  and  _241
REMARK   93  A    between atoms: _241  and  _242
REMARK   94  A    between atoms: _241  and  _244
REMARK   95  A    between atoms: _244  and  _245
REMARK   96  A    between atoms: _247  and  _249
REMARK   97  A    between atoms: _249  and  _250
REMARK   98  A    between atoms: _249  and  _252
REMARK   99  A    between atoms: _252  and  _253
REMARK  100  A    between atoms: _256  and  _258
REMARK  101  A    between atoms: _258  and  _259
REMARK  102  A    between atoms: _262  and  _264
REMARK  103  A    between atoms: _264  and  _265
REMARK  104  A    between atoms: _264  and  _267
REMARK  105  A    between atoms: _267  and  _268
REMARK  106  A    between atoms: _270  and  _272
REMARK  107  A    between atoms: _272  and  _273
REMARK  108  A    between atoms: _272  and  _275
REMARK  109  A    between atoms: _275  and  _276
REMARK  110  A    between atoms: _276  and  _277
REMARK  111  A    between atoms: _281  and  _282
REMARK  112  A    between atoms: _287  and  _289
REMARK  113  A    between atoms: _289  and  _290
REMARK  114  A    between atoms: _289  and  _292
REMARK  115  A    between atoms: _292  and  _293
REMARK  116  A    between atoms: _295  and  _297
REMARK  117  A    between atoms: _297  and  _298
REMARK  118  A    between atoms: _297  and  _300
REMARK  119  A    between atoms: _300  and  _301
REMARK  120  A    between atoms: _301  and  _302
REMARK  121  A    between atoms: _307  and  _309
REMARK  122  A    between atoms: _309  and  _310
REMARK  123  A    between atoms: _309  and  _312
REMARK  124  A    between atoms: _312  and  _313
REMARK  125  A    between atoms: _316  and  _318
REMARK  126  A    between atoms: _318  and  _319
REMARK  127  A    between atoms: _318  and  _321
REMARK  128  A    between atoms: _321  and  _322
REMARK  129  A    between atoms: _325  and  _327
REMARK  130  A    between atoms: _327  and  _328
REMARK  131  A    between atoms: _327  and  _330
REMARK  132  A    between atoms: _330  and  _331
REMARK  133  A    between atoms: _336  and  _337
REMARK  134  A    between atoms: _339  and  _341
REMARK  135  A    between atoms: _341  and  _342
REMARK  136  A    between atoms: _341  and  _344
REMARK  137  A    between atoms: _344  and  _345
REMARK  138  A    between atoms: _351  and  _353
REMARK  139  A    between atoms: _353  and  _354
REMARK  140  A    between atoms: _353  and  _356
REMARK  141  A    between atoms: _356  and  _357
REMARK  142  A    between atoms: _357  and  _358
REMARK                            x       y       z     vdW  Elec       q    Type
REMARK                         _______ _______ _______ _____ _____    ______ ____
ROOT
ATOM      1  O   HOH     1      -3.315  15.347  -8.648  0.00  0.00    +0.000 OA
ENDROOT
TORSDOF 0
REMARK  Name = ../refined-set-2016/3dri/3dri_pocket.pdb
REMARK  142 active torsions:
REMARK  status: ('A' for Active; 'I' for Inactive)
REMARK    1  A    between atoms: _1  and  _3
REMARK    2  A    between atoms: _3  and  _4
REMARK    3  A    between atoms: _3  and  _6
REMARK    4  A    between atoms: _6  and  _7
REMARK    5  A    between atoms: _10  and  _12
REMARK    6  A    between atoms: _12  and  _13
REMARK    7  A    between atoms: _12  and  _15
REMARK    8  A    between atoms: _15  and  _16
REMARK    9  A    between atoms: _16  and  _17
REMARK   10  A    between atoms: _17  and  _18
REMARK   11  A    between atoms: _27  and  _29
REMARK   12  A    between atoms: _29  and  _30
REMARK   13  A    between atoms: _29  and  _32
REMARK   14  A    between atoms: _32  and  _33
REMARK   15  A    between atoms: _43  and  _45
REMARK   16  A    between atoms: _45  and  _46
REMARK   17  A    between atoms: _45  and  _48
REMARK   18  A    between atoms: _48  and  _49
REMARK   19  A    between atoms: _52  and  _54
REMARK   20  A    between atoms: _54  and  _55
REMARK   21  A    between atoms: _54  and  _57
REMARK   22  A    between atoms: _57  and  _58
REMARK   23  A    between atoms: _61  and  _63
REMARK   24  A    between atoms: _63  and  _64
REMARK   25  A    between atoms: _63  and  _66
REMARK   26  A    between atoms: _66  and  _67
REMARK   27  A    between atoms: _69  and  _71
REMARK   28  A    between atoms: _71  and  _72
REMARK   29  A    between atoms: _71  and  _74
REMARK   30  A    between atoms: _74  and  _75
REMARK   31  A    between atoms: _78  and  _80
REMARK   32  A    between atoms: _80  and  _81
REMARK   33  A    between atoms: _83  and  _85
REMARK   34  A    between atoms: _85  and  _86
REMARK   35  A    between atoms: _85  and  _88
REMARK   36  A    between atoms: _88  and  _89
REMARK   37  A    between atoms: _94  and  _96
REMARK   38  A    between atoms: _96  and  _97
REMARK   39  A    between atoms: _99  and  _101
REMARK   40  A    between atoms: _101  and  _102
REMARK   41  A    between atoms: _101  and  _104
REMARK   42  A    between atoms: _104  and  _105
REMARK   43  A    between atoms: _105  and  _106
REMARK   44  A    between atoms: _108  and  _110
REMARK   45  A    between atoms: _110  and  _111
REMARK   46  A    between atoms: _110  and  _113
REMARK   47  A    between atoms: _113  and  _114
REMARK   48  A    between atoms: _119  and  _120
REMARK   49  A    between atoms: _122  and  _124
REMARK   50  A    between atoms: _124  and  _125
REMARK   51  A    between atoms: _124  and  _127
REMARK   52  A    between atoms: _127  and  _128
REMARK   53  A    between atoms: _131  and  _133
REMARK   54  A    between atoms: _133  and  _134
REMARK   55  A    between atoms: _133  and  _136
REMARK   56  A    between atoms: _136  and  _137
REMARK   57  A    between atoms: _139  and  _141
REMARK   58  A    between atoms: _141  and  _142
REMARK   59  A    between atoms: _141  and  _144
REMARK   60  A    between atoms: _144  and  _145
REMARK   61  A    between atoms: _148  and  _150
REMARK   62  A    between atoms: _150  and  _151
REMARK   63  A    between atoms: _150  and  _153
REMARK   64  A    between atoms: _153  and  _154
REMARK   65  A    between atoms: _154  and  _155
REMARK   66  A    between atoms: _155  and  _156
REMARK   67  A    between atoms: _165  and  _167
REMARK   68  A    between atoms: _167  and  _168
REMARK   69  A    between atoms: _167  and  _170
REMARK   70  A    between atoms: _170  and  _171
REMARK   71  A    between atoms: _177  and  _179
REMARK   72  A    between atoms: _179  and  _180
REMARK   73  A    between atoms: _179  and  _182
REMARK   74  A    between atoms: _182  and  _183
REMARK   75  A    between atoms: _193  and  _195
REMARK   76  A    between atoms: _195  and  _196
REMARK   77  A    between atoms: _195  and  _198
REMARK   78  A    between atoms: _201  and  _203
REMARK   79  A    between atoms: _203  and  _204
REMARK   80  A    between atoms: _203  and  _206
REMARK   81  A    between atoms: _206  and  _207
REMARK   82  A    between atoms: _210  and  _212
REMARK   83  A    between atoms: _212  and  _213
REMARK   84  A    between atoms: _215  and  _217
REMARK   85  A    between atoms: _217  and  _218
REMARK   86  A    between atoms: _217  and  _220
REMARK   87  A    between atoms: _220  and  _221
REMARK   88  A    between atoms: _223  and  _225
REMARK   89  A    between atoms: _225  and  _226
REMARK   90  A    between atoms: _225  and  _228
REMARK   91  A    between atoms: _228  and  _229
REMARK   92  A    between atoms: _239  and  _241
REMARK   93  A    between atoms: _241  and  _242
REMARK   94  A    between atoms: _241  and  _244
REMARK   95  A    between atoms: _244  and  _245
REMARK   96  A    between atoms: _247  and  _249
REMARK   97  A    between atoms: _249  and  _250
REMARK   98  A    between atoms: _249  and  _252
REMARK   99  A    between atoms: _252  and  _253
REMARK  100  A    between atoms: _256  and  _258
REMARK  101  A    between atoms: _258  and  _259
REMARK  102  A    between atoms: _262  and  _264
REMARK  103  A    between atoms: _264  and  _265
REMARK  104  A    between atoms: _264  and  _267
REMARK  105  A    between atoms: _267  and  _268
REMARK  106  A    between atoms: _270  and  _272
REMARK  107  A    between atoms: _272  and  _273
REMARK  108  A    between atoms: _272  and  _275
REMARK  109  A    between atoms: _275  and  _276
REMARK  110  A    between atoms: _276  and  _277
REMARK  111  A    between atoms: _281  and  _282
REMARK  112  A    between atoms: _287  and  _289
REMARK  113  A    between atoms: _289  and  _290
REMARK  114  A    between atoms: _289  and  _292
REMARK  115  A    between atoms: _292  and  _293
REMARK  116  A    between atoms: _295  and  _297
REMARK  117  A    between atoms: _297  and  _298
REMARK  118  A    between atoms: _297  and  _300
REMARK  119  A    between atoms: _300  and  _301
REMARK  120  A    between atoms: _301  and  _302
REMARK  121  A    between atoms: _307  and  _309
REMARK  122  A    between atoms: _309  and  _310
REMARK  123  A    between atoms: _309  and  _312
REMARK  124  A    between atoms: _312  and  _313
REMARK  125  A    between atoms: _316  and  _318
REMARK  126  A    between atoms: _318  and  _319
REMARK  127  A    between atoms: _318  and  _321
REMARK  128  A    between atoms: _321  and  _322
REMARK  129  A    between atoms: _325  and  _327
REMARK  130  A    between atoms: _327  and  _328
REMARK  131  A    between atoms: _327  and  _330
REMARK  132  A    between atoms: _330  and  _331
REMARK  133  A    between atoms: _336  and  _337
REMARK  134  A    between atoms: _339  and  _341
REMARK  135  A    between atoms: _341  and  _342
REMARK  136  A    between atoms: _341  and  _344
REMARK  137  A    between atoms: _344  and  _345
REMARK  138  A    between atoms: _351  and  _353
REMARK  139  A    between atoms: _353  and  _354
REMARK  140  A    between atoms: _353  and  _356
REMARK  141  A    between atoms: _356  and  _357
REMARK  142  A    between atoms: _357  and  _358
REMARK                            x       y       z     vdW  Elec       q    Type
REMARK                         _______ _______ _______ _____ _____    ______ ____
ROOT
ATOM      1  O   HOH     1      -4.006  23.118  10.134  0.00  0.00    +0.000 OA
ENDROOT
TORSDOF 0
REMARK  Name = ../refined-set-2016/3dri/3dri_pocket.pdb
REMARK  142 active torsions:
REMARK  status: ('A' for Active; 'I' for Inactive)
REMARK    1  A    between atoms: _1  and  _3
REMARK    2  A    between atoms: _3  and  _4
REMARK    3  A    between atoms: _3  and  _6
REMARK    4  A    between atoms: _6  and  _7
REMARK    5  A    between atoms: _10  and  _12
REMARK    6  A    between atoms: _12  and  _13
REMARK    7  A    between atoms: _12  and  _15
REMARK    8  A    between atoms: _15  and  _16
REMARK    9  A    between atoms: _16  and  _17
REMARK   10  A    between atoms: _17  and  _18
REMARK   11  A    between atoms: _27  and  _29
REMARK   12  A    between atoms: _29  and  _30
REMARK   13  A    between atoms: _29  and  _32
REMARK   14  A    between atoms: _32  and  _33
REMARK   15  A    between atoms: _43  and  _45
REMARK   16  A    between atoms: _45  and  _46
REMARK   17  A    between atoms: _45  and  _48
REMARK   18  A    between atoms: _48  and  _49
REMARK   19  A    between atoms: _52  and  _54
REMARK   20  A    between atoms: _54  and  _55
REMARK   21  A    between atoms: _54  and  _57
REMARK   22  A    between atoms: _57  and  _58
REMARK   23  A    between atoms: _61  and  _63
REMARK   24  A    between atoms: _63  and  _64
REMARK   25  A    between atoms: _63  and  _66
REMARK   26  A    between atoms: _66  and  _67
REMARK   27  A    between atoms: _69  and  _71
REMARK   28  A    between atoms: _71  and  _72
REMARK   29  A    between atoms: _71  and  _74
REMARK   30  A    between atoms: _74  and  _75
REMARK   31  A    between atoms: _78  and  _80
REMARK   32  A    between atoms: _80  and  _81
REMARK   33  A    between atoms: _83  and  _85
REMARK   34  A    between atoms: _85  and  _86
REMARK   35  A    between atoms: _85  and  _88
REMARK   36  A    between atoms: _88  and  _89
REMARK   37  A    between atoms: _94  and  _96
REMARK   38  A    between atoms: _96  and  _97
REMARK   39  A    between atoms: _99  and  _101
REMARK   40  A    between atoms: _101  and  _102
REMARK   41  A    between atoms: _101  and  _104
REMARK   42  A    between atoms: _104  and  _105
REMARK   43  A    between atoms: _105  and  _106
REMARK   44  A    between atoms: _108  and  _110
REMARK   45  A    between atoms: _110  and  _111
REMARK   46  A    between atoms: _110  and  _113
REMARK   47  A    between atoms: _113  and  _114
REMARK   48  A    between atoms: _119  and  _120
REMARK   49  A    between atoms: _122  and  _124
REMARK   50  A    between atoms: _124  and  _125
REMARK   51  A    between atoms: _124  and  _127
REMARK   52  A    between atoms: _127  and  _128
REMARK   53  A    between atoms: _131  and  _133
REMARK   54  A    between atoms: _133  and  _134
REMARK   55  A    between atoms: _133  and  _136
REMARK   56  A    between atoms: _136  and  _137
REMARK   57  A    between atoms: _139  and  _141
REMARK   58  A    between atoms: _141  and  _142
REMARK   59  A    between atoms: _141  and  _144
REMARK   60  A    between atoms: _144  and  _145
REMARK   61  A    between atoms: _148  and  _150
REMARK   62  A    between atoms: _150  and  _151
REMARK   63  A    between atoms: _150  and  _153
REMARK   64  A    between atoms: _153  and  _154
REMARK   65  A    between atoms: _154  and  _155
REMARK   66  A    between atoms: _155  and  _156
REMARK   67  A    between atoms: _165  and  _167
REMARK   68  A    between atoms: _167  and  _168
REMARK   69  A    between atoms: _167  and  _170
REMARK   70  A    between atoms: _170  and  _171
REMARK   71  A    between atoms: _177  and  _179
REMARK   72  A    between atoms: _179  and  _180
REMARK   73  A    between atoms: _179  and  _182
REMARK   74  A    between atoms: _182  and  _183
REMARK   75  A    between atoms: _193  and  _195
REMARK   76  A    between atoms: _195  and  _196
REMARK   77  A    between atoms: _195  and  _198
REMARK   78  A    between atoms: _201  and  _203
REMARK   79  A    between atoms: _203  and  _204
REMARK   80  A    between atoms: _203  and  _206
REMARK   81  A    between atoms: _206  and  _207
REMARK   82  A    between atoms: _210  and  _212
REMARK   83  A    between atoms: _212  and  _213
REMARK   84  A    between atoms: _215  and  _217
REMARK   85  A    between atoms: _217  and  _218
REMARK   86  A    between atoms: _217  and  _220
REMARK   87  A    between atoms: _220  and  _221
REMARK   88  A    between atoms: _223  and  _225
REMARK   89  A    between atoms: _225  and  _226
REMARK   90  A    between atoms: _225  and  _228
REMARK   91  A    between atoms: _228  and  _229
REMARK   92  A    between atoms: _239  and  _241
REMARK   93  A    between atoms: _241  and  _242
REMARK   94  A    between atoms: _241  and  _244
REMARK   95  A    between atoms: _244  and  _245
REMARK   96  A    between atoms: _247  and  _249
REMARK   97  A    between atoms: _249  and  _250
REMARK   98  A    between atoms: _249  and  _252
REMARK   99  A    between atoms: _252  and  _253
REMARK  100  A    between atoms: _256  and  _258
REMARK  101  A    between atoms: _258  and  _259
REMARK  102  A    between atoms: _262  and  _264
REMARK  103  A    between atoms: _264  and  _265
REMARK  104  A    between atoms: _264  and  _267
REMARK  105  A    between atoms: _267  and  _268
REMARK  106  A    between atoms: _270  and  _272
REMARK  107  A    between atoms: _272  and  _273
REMARK  108  A    between atoms: _272  and  _275
REMARK  109  A    between atoms: _275  and  _276
REMARK  110  A    between atoms: _276  and  _277
REMARK  111  A    between atoms: _281  and  _282
REMARK  112  A    between atoms: _287  and  _289
REMARK  113  A    between atoms: _289  and  _290
REMARK  114  A    between atoms: _289  and  _292
REMARK  115  A    between atoms: _292  and  _293
REMARK  116  A    between atoms: _295  and  _297
REMARK  117  A    between atoms: _297  and  _298
REMARK  118  A    between atoms: _297  and  _300
REMARK  119  A    between atoms: _300  and  _301
REMARK  120  A    between atoms: _301  and  _302
REMARK  121  A    between atoms: _307  and  _309
REMARK  122  A    between atoms: _309  and  _310
REMARK  123  A    between atoms: _309  and  _312
REMARK  124  A    between atoms: _312  and  _313
REMARK  125  A    between atoms: _316  and  _318
REMARK  126  A    between atoms: _318  and  _319
REMARK  127  A    between atoms: _318  and  _321
REMARK  128  A    between atoms: _321  and  _322
REMARK  129  A    between atoms: _325  and  _327
REMARK  130  A    between atoms: _327  and  _328
REMARK  131  A    between atoms: _327  and  _330
REMARK  132  A    between atoms: _330  and  _331
REMARK  133  A    between atoms: _336  and  _337
REMARK  134  A    between atoms: _339  and  _341
REMARK  135  A    between atoms: _341  and  _342
REMARK  136  A    between atoms: _341  and  _344
REMARK  137  A    between atoms: _344  and  _345
REMARK  138  A    between atoms: _351  and  _353
REMARK  139  A    between atoms: _353  and  _354
REMARK  140  A    between atoms: _353  and  _356
REMARK  141  A    between atoms: _356  and  _357
REMARK  142  A    between atoms: _357  and  _358
REMARK                            x       y       z     vdW  Elec       q    Type
REMARK                         _______ _______ _______ _____ _____    ______ ____
ROOT
ATOM      1  O   HOH     1      -1.188  17.804  15.398  0.00  0.00    +0.000 OA
ENDROOT
TORSDOF 0
REMARK  Name = ../refined-set-2016/3dri/3dri_pocket.pdb
REMARK  142 active torsions:
REMARK  status: ('A' for Active; 'I' for Inactive)
REMARK    1  A    between atoms: _1  and  _3
REMARK    2  A    between atoms: _3  and  _4
REMARK    3  A    between atoms: _3  and  _6
REMARK    4  A    between atoms: _6  and  _7
REMARK    5  A    between atoms: _10  and  _12
REMARK    6  A    between atoms: _12  and  _13
REMARK    7  A    between atoms: _12  and  _15
REMARK    8  A    between atoms: _15  and  _16
REMARK    9  A    between atoms: _16  and  _17
REMARK   10  A    between atoms: _17  and  _18
REMARK   11  A    between atoms: _27  and  _29
REMARK   12  A    between atoms: _29  and  _30
REMARK   13  A    between atoms: _29  and  _32
REMARK   14  A    between atoms: _32  and  _33
REMARK   15  A    between atoms: _43  and  _45
REMARK   16  A    between atoms: _45  and  _46
REMARK   17  A    between atoms: _45  and  _48
REMARK   18  A    between atoms: _48  and  _49
REMARK   19  A    between atoms: _52  and  _54
REMARK   20  A    between atoms: _54  and  _55
REMARK   21  A    between atoms: _54  and  _57
REMARK   22  A    between atoms: _57  and  _58
REMARK   23  A    between atoms: _61  and  _63
REMARK   24  A    between atoms: _63  and  _64
REMARK   25  A    between atoms: _63  and  _66
REMARK   26  A    between atoms: _66  and  _67
REMARK   27  A    between atoms: _69  and  _71
REMARK   28  A    between atoms: _71  and  _72
REMARK   29  A    between atoms: _71  and  _74
REMARK   30  A    between atoms: _74  and  _75
REMARK   31  A    between atoms: _78  and  _80
REMARK   32  A    between atoms: _80  and  _81
REMARK   33  A    between atoms: _83  and  _85
REMARK   34  A    between atoms: _85  and  _86
REMARK   35  A    between atoms: _85  and  _88
REMARK   36  A    between atoms: _88  and  _89
REMARK   37  A    between atoms: _94  and  _96
REMARK   38  A    between atoms: _96  and  _97
REMARK   39  A    between atoms: _99  and  _101
REMARK   40  A    between atoms: _101  and  _102
REMARK   41  A    between atoms: _101  and  _104
REMARK   42  A    between atoms: _104  and  _105
REMARK   43  A    between atoms: _105  and  _106
REMARK   44  A    between atoms: _108  and  _110
REMARK   45  A    between atoms: _110  and  _111
REMARK   46  A    between atoms: _110  and  _113
REMARK   47  A    between atoms: _113  and  _114
REMARK   48  A    between atoms: _119  and  _120
REMARK   49  A    between atoms: _122  and  _124
REMARK   50  A    between atoms: _124  and  _125
REMARK   51  A    between atoms: _124  and  _127
REMARK   52  A    between atoms: _127  and  _128
REMARK   53  A    between atoms: _131  and  _133
REMARK   54  A    between atoms: _133  and  _134
REMARK   55  A    between atoms: _133  and  _136
REMARK   56  A    between atoms: _136  and  _137
REMARK   57  A    between atoms: _139  and  _141
REMARK   58  A    between atoms: _141  and  _142
REMARK   59  A    between atoms: _141  and  _144
REMARK   60  A    between atoms: _144  and  _145
REMARK   61  A    between atoms: _148  and  _150
REMARK   62  A    between atoms: _150  and  _151
REMARK   63  A    between atoms: _150  and  _153
REMARK   64  A    between atoms: _153  and  _154
REMARK   65  A    between atoms: _154  and  _155
REMARK   66  A    between atoms: _155  and  _156
REMARK   67  A    between atoms: _165  and  _167
REMARK   68  A    between atoms: _167  and  _168
REMARK   69  A    between atoms: _167  and  _170
REMARK   70  A    between atoms: _170  and  _171
REMARK   71  A    between atoms: _177  and  _179
REMARK   72  A    between atoms: _179  and  _180
REMARK   73  A    between atoms: _179  and  _182
REMARK   74  A    between atoms: _182  and  _183
REMARK   75  A    between atoms: _193  and  _195
REMARK   76  A    between atoms: _195  and  _196
REMARK   77  A    between atoms: _195  and  _198
REMARK   78  A    between atoms: _201  and  _203
REMARK   79  A    between atoms: _203  and  _204
REMARK   80  A    between atoms: _203  and  _206
REMARK   81  A    between atoms: _206  and  _207
REMARK   82  A    between atoms: _210  and  _212
REMARK   83  A    between atoms: _212  and  _213
REMARK   84  A    between atoms: _215  and  _217
REMARK   85  A    between atoms: _217  and  _218
REMARK   86  A    between atoms: _217  and  _220
REMARK   87  A    between atoms: _220  and  _221
REMARK   88  A    between atoms: _223  and  _225
REMARK   89  A    between atoms: _225  and  _226
REMARK   90  A    between atoms: _225  and  _228
REMARK   91  A    between atoms: _228  and  _229
REMARK   92  A    between atoms: _239  and  _241
REMARK   93  A    between atoms: _241  and  _242
REMARK   94  A    between atoms: _241  and  _244
REMARK   95  A    between atoms: _244  and  _245
REMARK   96  A    between atoms: _247  and  _249
REMARK   97  A    between atoms: _249  and  _250
REMARK   98  A    between atoms: _249  and  _252
REMARK   99  A    between atoms: _252  and  _253
REMARK  100  A    between atoms: _256  and  _258
REMARK  101  A    between atoms: _258  and  _259
REMARK  102  A    between atoms: _262  and  _264
REMARK  103  A    between atoms: _264  and  _265
REMARK  104  A    between atoms: _264  and  _267
REMARK  105  A    between atoms: _267  and  _268
REMARK  106  A    between atoms: _270  and  _272
REMARK  107  A    between atoms: _272  and  _273
REMARK  108  A    between atoms: _272  and  _275
REMARK  109  A    between atoms: _275  and  _276
REMARK  110  A    between atoms: _276  and  _277
REMARK  111  A    between atoms: _281  and  _282
REMARK  112  A    between atoms: _287  and  _289
REMARK  113  A    between atoms: _289  and  _290
REMARK  114  A    between atoms: _289  and  _292
REMARK  115  A    between atoms: _292  and  _293
REMARK  116  A    between atoms: _295  and  _297
REMARK  117  A    between atoms: _297  and  _298
REMARK  118  A    between atoms: _297  and  _300
REMARK  119  A    between atoms: _300  and  _301
REMARK  120  A    between atoms: _301  and  _302
REMARK  121  A    between atoms: _307  and  _309
REMARK  122  A    between atoms: _309  and  _310
REMARK  123  A    between atoms: _309  and  _312
REMARK  124  A    between atoms: _312  and  _313
REMARK  125  A    between atoms: _316  and  _318
REMARK  126  A    between atoms: _318  and  _319
REMARK  127  A    between atoms: _318  and  _321
REMARK  128  A    between atoms: _321  and  _322
REMARK  129  A    between atoms: _325  and  _327
REMARK  130  A    between atoms: _327  and  _328
REMARK  131  A    between atoms: _327  and  _330
REMARK  132  A    between atoms: _330  and  _331
REMARK  133  A    between atoms: _336  and  _337
REMARK  134  A    between atoms: _339  and  _341
REMARK  135  A    between atoms: _341  and  _342
REMARK  136  A    between atoms: _341  and  _344
REMARK  137  A    between atoms: _344  and  _345
REMARK  138  A    between atoms: _351  and  _353
REMARK  139  A    between atoms: _353  and  _354
REMARK  140  A    between atoms: _353  and  _356
REMARK  141  A    between atoms: _356  and  _357
REMARK  142  A    between atoms: _357  and  _358
REMARK                            x       y       z     vdW  Elec       q    Type
REMARK                         _______ _______ _______ _____ _____    ______ ____
ROOT
ATOM      1  O   HOH     1       1.455  16.545  -3.754  0.00  0.00    +0.000 OA
ENDROOT
TORSDOF 0
REMARK  Name = ../refined-set-2016/3dri/3dri_pocket.pdb
REMARK  142 active torsions:
REMARK  status: ('A' for Active; 'I' for Inactive)
REMARK    1  A    between atoms: _1  and  _3
REMARK    2  A    between atoms: _3  and  _4
REMARK    3  A    between atoms: _3  and  _6
REMARK    4  A    between atoms: _6  and  _7
REMARK    5  A    between atoms: _10  and  _12
REMARK    6  A    between atoms: _12  and  _13
REMARK    7  A    between atoms: _12  and  _15
REMARK    8  A    between atoms: _15  and  _16
REMARK    9  A    between atoms: _16  and  _17
REMARK   10  A    between atoms: _17  and  _18
REMARK   11  A    between atoms: _27  and  _29
REMARK   12  A    between atoms: _29  and  _30
REMARK   13  A    between atoms: _29  and  _32
REMARK   14  A    between atoms: _32  and  _33
REMARK   15  A    between atoms: _43  and  _45
REMARK   16  A    between atoms: _45  and  _46
REMARK   17  A    between atoms: _45  and  _48
REMARK   18  A    between atoms: _48  and  _49
REMARK   19  A    between atoms: _52  and  _54
REMARK   20  A    between atoms: _54  and  _55
REMARK   21  A    between atoms: _54  and  _57
REMARK   22  A    between atoms: _57  and  _58
REMARK   23  A    between atoms: _61  and  _63
REMARK   24  A    between atoms: _63  and  _64
REMARK   25  A    between atoms: _63  and  _66
REMARK   26  A    between atoms: _66  and  _67
REMARK   27  A    between atoms: _69  and  _71
REMARK   28  A    between atoms: _71  and  _72
REMARK   29  A    between atoms: _71  and  _74
REMARK   30  A    between atoms: _74  and  _75
REMARK   31  A    between atoms: _78  and  _80
REMARK   32  A    between atoms: _80  and  _81
REMARK   33  A    between atoms: _83  and  _85
REMARK   34  A    between atoms: _85  and  _86
REMARK   35  A    between atoms: _85  and  _88
REMARK   36  A    between atoms: _88  and  _89
REMARK   37  A    between atoms: _94  and  _96
REMARK   38  A    between atoms: _96  and  _97
REMARK   39  A    between atoms: _99  and  _101
REMARK   40  A    between atoms: _101  and  _102
REMARK   41  A    between atoms: _101  and  _104
REMARK   42  A    between atoms: _104  and  _105
REMARK   43  A    between atoms: _105  and  _106
REMARK   44  A    between atoms: _108  and  _110
REMARK   45  A    between atoms: _110  and  _111
REMARK   46  A    between atoms: _110  and  _113
REMARK   47  A    between atoms: _113  and  _114
REMARK   48  A    between atoms: _119  and  _120
REMARK   49  A    between atoms: _122  and  _124
REMARK   50  A    between atoms: _124  and  _125
REMARK   51  A    between atoms: _124  and  _127
REMARK   52  A    between atoms: _127  and  _128
REMARK   53  A    between atoms: _131  and  _133
REMARK   54  A    between atoms: _133  and  _134
REMARK   55  A    between atoms: _133  and  _136
REMARK   56  A    between atoms: _136  and  _137
REMARK   57  A    between atoms: _139  and  _141
REMARK   58  A    between atoms: _141  and  _142
REMARK   59  A    between atoms: _141  and  _144
REMARK   60  A    between atoms: _144  and  _145
REMARK   61  A    between atoms: _148  and  _150
REMARK   62  A    between atoms: _150  and  _151
REMARK   63  A    between atoms: _150  and  _153
REMARK   64  A    between atoms: _153  and  _154
REMARK   65  A    between atoms: _154  and  _155
REMARK   66  A    between atoms: _155  and  _156
REMARK   67  A    between atoms: _165  and  _167
REMARK   68  A    between atoms: _167  and  _168
REMARK   69  A    between atoms: _167  and  _170
REMARK   70  A    between atoms: _170  and  _171
REMARK   71  A    between atoms: _177  and  _179
REMARK   72  A    between atoms: _179  and  _180
REMARK   73  A    between atoms: _179  and  _182
REMARK   74  A    between atoms: _182  and  _183
REMARK   75  A    between atoms: _193  and  _195
REMARK   76  A    between atoms: _195  and  _196
REMARK   77  A    between atoms: _195  and  _198
REMARK   78  A    between atoms: _201  and  _203
REMARK   79  A    between atoms: _203  and  _204
REMARK   80  A    between atoms: _203  and  _206
REMARK   81  A    between atoms: _206  and  _207
REMARK   82  A    between atoms: _210  and  _212
REMARK   83  A    between atoms: _212  and  _213
REMARK   84  A    between atoms: _215  and  _217
REMARK   85  A    between atoms: _217  and  _218
REMARK   86  A    between atoms: _217  and  _220
REMARK   87  A    between atoms: _220  and  _221
REMARK   88  A    between atoms: _223  and  _225
REMARK   89  A    between atoms: _225  and  _226
REMARK   90  A    between atoms: _225  and  _228
REMARK   91  A    between atoms: _228  and  _229
REMARK   92  A    between atoms: _239  and  _241
REMARK   93  A    between atoms: _241  and  _242
REMARK   94  A    between atoms: _241  and  _244
REMARK   95  A    between atoms: _244  and  _245
REMARK   96  A    between atoms: _247  and  _249
REMARK   97  A    between atoms: _249  and  _250
REMARK   98  A    between atoms: _249  and  _252
REMARK   99  A    between atoms: _252  and  _253
REMARK  100  A    between atoms: _256  and  _258
REMARK  101  A    between atoms: _258  and  _259
REMARK  102  A    between atoms: _262  and  _264
REMARK  103  A    between atoms: _264  and  _265
REMARK  104  A    between atoms: _264  and  _267
REMARK  105  A    between atoms: _267  and  _268
REMARK  106  A    between atoms: _270  and  _272
REMARK  107  A    between atoms: _272  and  _273
REMARK  108  A    between atoms: _272  and  _275
REMARK  109  A    between atoms: _275  and  _276
REMARK  110  A    between atoms: _276  and  _277
REMARK  111  A    between atoms: _281  and  _282
REMARK  112  A    between atoms: _287  and  _289
REMARK  113  A    between atoms: _289  and  _290
REMARK  114  A    between atoms: _289  and  _292
REMARK  115  A    between atoms: _292  and  _293
REMARK  116  A    between atoms: _295  and  _297
REMARK  117  A    between atoms: _297  and  _298
REMARK  118  A    between atoms: _297  and  _300
REMARK  119  A    between atoms: _300  and  _301
REMARK  120  A    between atoms: _301  and  _302
REMARK  121  A    between atoms: _307  and  _309
REMARK  122  A    between atoms: _309  and  _310
REMARK  123  A    between atoms: _309  and  _312
REMARK  124  A    between atoms: _312  and  _313
REMARK  125  A    between atoms: _316  and  _318
REMARK  126  A    between atoms: _318  and  _319
REMARK  127  A    between atoms: _318  and  _321
REMARK  128  A    between atoms: _321  and  _322
REMARK  129  A    between atoms: _325  and  _327
REMARK  130  A    between atoms: _327  and  _328
REMARK  131  A    between atoms: _327  and  _330
REMARK  132  A    between atoms: _330  and  _331
REMARK  133  A    between atoms: _336  and  _337
REMARK  134  A    between atoms: _339  and  _341
REMARK  135  A    between atoms: _341  and  _342
REMARK  136  A    between atoms: _341  and  _344
REMARK  137  A    between atoms: _344  and  _345
REMARK  138  A    between atoms: _351  and  _353
REMARK  139  A    between atoms: _353  and  _354
REMARK  140  A    between atoms: _353  and  _356
REMARK  141  A    between atoms: _356  and  _357
REMARK  142  A    between atoms: _357  and  _358
REMARK                            x       y       z     vdW  Elec       q    Type
REMARK                         _______ _______ _______ _____ _____    ______ ____
ROOT
ATOM      1  O   HOH     1       1.544  23.120  -4.696  0.00  0.00    +0.000 OA
ENDROOT
TORSDOF 0
REMARK  Name = ../refined-set-2016/3dri/3dri_pocket.pdb
REMARK  142 active torsions:
REMARK  status: ('A' for Active; 'I' for Inactive)
REMARK    1  A    between atoms: _1  and  _3
REMARK    2  A    between atoms: _3  and  _4
REMARK    3  A    between atoms: _3  and  _6
REMARK    4  A    between atoms: _6  and  _7
REMARK    5  A    between atoms: _10  and  _12
REMARK    6  A    between atoms: _12  and  _13
REMARK    7  A    between atoms: _12  and  _15
REMARK    8  A    between atoms: _15  and  _16
REMARK    9  A    between atoms: _16  and  _17
REMARK   10  A    between atoms: _17  and  _18
REMARK   11  A    between atoms: _27  and  _29
REMARK   12  A    between atoms: _29  and  _30
REMARK   13  A    between atoms: _29  and  _32
REMARK   14  A    between atoms: _32  and  _33
REMARK   15  A    between atoms: _43  and  _45
REMARK   16  A    between atoms: _45  and  _46
REMARK   17  A    between atoms: _45  and  _48
REMARK   18  A    between atoms: _48  and  _49
REMARK   19  A    between atoms: _52  and  _54
REMARK   20  A    between atoms: _54  and  _55
REMARK   21  A    between atoms: _54  and  _57
REMARK   22  A    between atoms: _57  and  _58
REMARK   23  A    between atoms: _61  and  _63
REMARK   24  A    between atoms: _63  and  _64
REMARK   25  A    between atoms: _63  and  _66
REMARK   26  A    between atoms: _66  and  _67
REMARK   27  A    between atoms: _69  and  _71
REMARK   28  A    between atoms: _71  and  _72
REMARK   29  A    between atoms: _71  and  _74
REMARK   30  A    between atoms: _74  and  _75
REMARK   31  A    between atoms: _78  and  _80
REMARK   32  A    between atoms: _80  and  _81
REMARK   33  A    between atoms: _83  and  _85
REMARK   34  A    between atoms: _85  and  _86
REMARK   35  A    between atoms: _85  and  _88
REMARK   36  A    between atoms: _88  and  _89
REMARK   37  A    between atoms: _94  and  _96
REMARK   38  A    between atoms: _96  and  _97
REMARK   39  A    between atoms: _99  and  _101
REMARK   40  A    between atoms: _101  and  _102
REMARK   41  A    between atoms: _101  and  _104
REMARK   42  A    between atoms: _104  and  _105
REMARK   43  A    between atoms: _105  and  _106
REMARK   44  A    between atoms: _108  and  _110
REMARK   45  A    between atoms: _110  and  _111
REMARK   46  A    between atoms: _110  and  _113
REMARK   47  A    between atoms: _113  and  _114
REMARK   48  A    between atoms: _119  and  _120
REMARK   49  A    between atoms: _122  and  _124
REMARK   50  A    between atoms: _124  and  _125
REMARK   51  A    between atoms: _124  and  _127
REMARK   52  A    between atoms: _127  and  _128
REMARK   53  A    between atoms: _131  and  _133
REMARK   54  A    between atoms: _133  and  _134
REMARK   55  A    between atoms: _133  and  _136
REMARK   56  A    between atoms: _136  and  _137
REMARK   57  A    between atoms: _139  and  _141
REMARK   58  A    between atoms: _141  and  _142
REMARK   59  A    between atoms: _141  and  _144
REMARK   60  A    between atoms: _144  and  _145
REMARK   61  A    between atoms: _148  and  _150
REMARK   62  A    between atoms: _150  and  _151
REMARK   63  A    between atoms: _150  and  _153
REMARK   64  A    between atoms: _153  and  _154
REMARK   65  A    between atoms: _154  and  _155
REMARK   66  A    between atoms: _155  and  _156
REMARK   67  A    between atoms: _165  and  _167
REMARK   68  A    between atoms: _167  and  _168
REMARK   69  A    between atoms: _167  and  _170
REMARK   70  A    between atoms: _170  and  _171
REMARK   71  A    between atoms: _177  and  _179
REMARK   72  A    between atoms: _179  and  _180
REMARK   73  A    between atoms: _179  and  _182
REMARK   74  A    between atoms: _182  and  _183
REMARK   75  A    between atoms: _193  and  _195
REMARK   76  A    between atoms: _195  and  _196
REMARK   77  A    between atoms: _195  and  _198
REMARK   78  A    between atoms: _201  and  _203
REMARK   79  A    between atoms: _203  and  _204
REMARK   80  A    between atoms: _203  and  _206
REMARK   81  A    between atoms: _206  and  _207
REMARK   82  A    between atoms: _210  and  _212
REMARK   83  A    between atoms: _212  and  _213
REMARK   84  A    between atoms: _215  and  _217
REMARK   85  A    between atoms: _217  and  _218
REMARK   86  A    between atoms: _217  and  _220
REMARK   87  A    between atoms: _220  and  _221
REMARK   88  A    between atoms: _223  and  _225
REMARK   89  A    between atoms: _225  and  _226
REMARK   90  A    between atoms: _225  and  _228
REMARK   91  A    between atoms: _228  and  _229
REMARK   92  A    between atoms: _239  and  _241
REMARK   93  A    between atoms: _241  and  _242
REMARK   94  A    between atoms: _241  and  _244
REMARK   95  A    between atoms: _244  and  _245
REMARK   96  A    between atoms: _247  and  _249
REMARK   97  A    between atoms: _249  and  _250
REMARK   98  A    between atoms: _249  and  _252
REMARK   99  A    between atoms: _252  and  _253
REMARK  100  A    between atoms: _256  and  _258
REMARK  101  A    between atoms: _258  and  _259
REMARK  102  A    between atoms: _262  and  _264
REMARK  103  A    between atoms: _264  and  _265
REMARK  104  A    between atoms: _264  and  _267
REMARK  105  A    between atoms: _267  and  _268
REMARK  106  A    between atoms: _270  and  _272
REMARK  107  A    between atoms: _272  and  _273
REMARK  108  A    between atoms: _272  and  _275
REMARK  109  A    between atoms: _275  and  _276
REMARK  110  A    between atoms: _276  and  _277
REMARK  111  A    between atoms: _281  and  _282
REMARK  112  A    between atoms: _287  and  _289
REMARK  113  A    between atoms: _289  and  _290
REMARK  114  A    between atoms: _289  and  _292
REMARK  115  A    between atoms: _292  and  _293
REMARK  116  A    between atoms: _295  and  _297
REMARK  117  A    between atoms: _297  and  _298
REMARK  118  A    between atoms: _297  and  _300
REMARK  119  A    between atoms: _300  and  _301
REMARK  120  A    between atoms: _301  and  _302
REMARK  121  A    between atoms: _307  and  _309
REMARK  122  A    between atoms: _309  and  _310
REMARK  123  A    between atoms: _309  and  _312
REMARK  124  A    between atoms: _312  and  _313
REMARK  125  A    between atoms: _316  and  _318
REMARK  126  A    between atoms: _318  and  _319
REMARK  127  A    between atoms: _318  and  _321
REMARK  128  A    between atoms: _321  and  _322
REMARK  129  A    between atoms: _325  and  _327
REMARK  130  A    between atoms: _327  and  _328
REMARK  131  A    between atoms: _327  and  _330
REMARK  132  A    between atoms: _330  and  _331
REMARK  133  A    between atoms: _336  and  _337
REMARK  134  A    between atoms: _339  and  _341
REMARK  135  A    between atoms: _341  and  _342
REMARK  136  A    between atoms: _341  and  _344
REMARK  137  A    between atoms: _344  and  _345
REMARK  138  A    between atoms: _351  and  _353
REMARK  139  A    between atoms: _353  and  _354
REMARK  140  A    between atoms: _353  and  _356
REMARK  141  A    between atoms: _356  and  _357
REMARK  142  A    between atoms: _357  and  _358
REMARK                            x       y       z     vdW  Elec       q    Type
REMARK                         _______ _______ _______ _____ _____    ______ ____
ROOT
ATOM      1  O   HOH     1       1.591  13.883  -4.810  0.00  0.00    +0.000 OA
ENDROOT
TORSDOF 0
REMARK  Name = ../refined-set-2016/3dri/3dri_pocket.pdb
REMARK  142 active torsions:
REMARK  status: ('A' for Active; 'I' for Inactive)
REMARK    1  A    between atoms: _1  and  _3
REMARK    2  A    between atoms: _3  and  _4
REMARK    3  A    between atoms: _3  and  _6
REMARK    4  A    between atoms: _6  and  _7
REMARK    5  A    between atoms: _10  and  _12
REMARK    6  A    between atoms: _12  and  _13
REMARK    7  A    between atoms: _12  and  _15
REMARK    8  A    between atoms: _15  and  _16
REMARK    9  A    between atoms: _16  and  _17
REMARK   10  A    between atoms: _17  and  _18
REMARK   11  A    between atoms: _27  and  _29
REMARK   12  A    between atoms: _29  and  _30
REMARK   13  A    between atoms: _29  and  _32
REMARK   14  A    between atoms: _32  and  _33
REMARK   15  A    between atoms: _43  and  _45
REMARK   16  A    between atoms: _45  and  _46
REMARK   17  A    between atoms: _45  and  _48
REMARK   18  A    between atoms: _48  and  _49
REMARK   19  A    between atoms: _52  and  _54
REMARK   20  A    between atoms: _54  and  _55
REMARK   21  A    between atoms: _54  and  _57
REMARK   22  A    between atoms: _57  and  _58
REMARK   23  A    between atoms: _61  and  _63
REMARK   24  A    between atoms: _63  and  _64
REMARK   25  A    between atoms: _63  and  _66
REMARK   26  A    between atoms: _66  and  _67
REMARK   27  A    between atoms: _69  and  _71
REMARK   28  A    between atoms: _71  and  _72
REMARK   29  A    between atoms: _71  and  _74
REMARK   30  A    between atoms: _74  and  _75
REMARK   31  A    between atoms: _78  and  _80
REMARK   32  A    between atoms: _80  and  _81
REMARK   33  A    between atoms: _83  and  _85
REMARK   34  A    between atoms: _85  and  _86
REMARK   35  A    between atoms: _85  and  _88
REMARK   36  A    between atoms: _88  and  _89
REMARK   37  A    between atoms: _94  and  _96
REMARK   38  A    between atoms: _96  and  _97
REMARK   39  A    between atoms: _99  and  _101
REMARK   40  A    between atoms: _101  and  _102
REMARK   41  A    between atoms: _101  and  _104
REMARK   42  A    between atoms: _104  and  _105
REMARK   43  A    between atoms: _105  and  _106
REMARK   44  A    between atoms: _108  and  _110
REMARK   45  A    between atoms: _110  and  _111
REMARK   46  A    between atoms: _110  and  _113
REMARK   47  A    between atoms: _113  and  _114
REMARK   48  A    between atoms: _119  and  _120
REMARK   49  A    between atoms: _122  and  _124
REMARK   50  A    between atoms: _124  and  _125
REMARK   51  A    between atoms: _124  and  _127
REMARK   52  A    between atoms: _127  and  _128
REMARK   53  A    between atoms: _131  and  _133
REMARK   54  A    between atoms: _133  and  _134
REMARK   55  A    between atoms: _133  and  _136
REMARK   56  A    between atoms: _136  and  _137
REMARK   57  A    between atoms: _139  and  _141
REMARK   58  A    between atoms: _141  and  _142
REMARK   59  A    between atoms: _141  and  _144
REMARK   60  A    between atoms: _144  and  _145
REMARK   61  A    between atoms: _148  and  _150
REMARK   62  A    between atoms: _150  and  _151
REMARK   63  A    between atoms: _150  and  _153
REMARK   64  A    between atoms: _153  and  _154
REMARK   65  A    between atoms: _154  and  _155
REMARK   66  A    between atoms: _155  and  _156
REMARK   67  A    between atoms: _165  and  _167
REMARK   68  A    between atoms: _167  and  _168
REMARK   69  A    between atoms: _167  and  _170
REMARK   70  A    between atoms: _170  and  _171
REMARK   71  A    between atoms: _177  and  _179
REMARK   72  A    between atoms: _179  and  _180
REMARK   73  A    between atoms: _179  and  _182
REMARK   74  A    between atoms: _182  and  _183
REMARK   75  A    between atoms: _193  and  _195
REMARK   76  A    between atoms: _195  and  _196
REMARK   77  A    between atoms: _195  and  _198
REMARK   78  A    between atoms: _201  and  _203
REMARK   79  A    between atoms: _203  and  _204
REMARK   80  A    between atoms: _203  and  _206
REMARK   81  A    between atoms: _206  and  _207
REMARK   82  A    between atoms: _210  and  _212
REMARK   83  A    between atoms: _212  and  _213
REMARK   84  A    between atoms: _215  and  _217
REMARK   85  A    between atoms: _217  and  _218
REMARK   86  A    between atoms: _217  and  _220
REMARK   87  A    between atoms: _220  and  _221
REMARK   88  A    between atoms: _223  and  _225
REMARK   89  A    between atoms: _225  and  _226
REMARK   90  A    between atoms: _225  and  _228
REMARK   91  A    between atoms: _228  and  _229
REMARK   92  A    between atoms: _239  and  _241
REMARK   93  A    between atoms: _241  and  _242
REMARK   94  A    between atoms: _241  and  _244
REMARK   95  A    between atoms: _244  and  _245
REMARK   96  A    between atoms: _247  and  _249
REMARK   97  A    between atoms: _249  and  _250
REMARK   98  A    between atoms: _249  and  _252
REMARK   99  A    between atoms: _252  and  _253
REMARK  100  A    between atoms: _256  and  _258
REMARK  101  A    between atoms: _258  and  _259
REMARK  102  A    between atoms: _262  and  _264
REMARK  103  A    between atoms: _264  and  _265
REMARK  104  A    between atoms: _264  and  _267
REMARK  105  A    between atoms: _267  and  _268
REMARK  106  A    between atoms: _270  and  _272
REMARK  107  A    between atoms: _272  and  _273
REMARK  108  A    between atoms: _272  and  _275
REMARK  109  A    between atoms: _275  and  _276
REMARK  110  A    between atoms: _276  and  _277
REMARK  111  A    between atoms: _281  and  _282
REMARK  112  A    between atoms: _287  and  _289
REMARK  113  A    between atoms: _289  and  _290
REMARK  114  A    between atoms: _289  and  _292
REMARK  115  A    between atoms: _292  and  _293
REMARK  116  A    between atoms: _295  and  _297
REMARK  117  A    between atoms: _297  and  _298
REMARK  118  A    between atoms: _297  and  _300
REMARK  119  A    between atoms: _300  and  _301
REMARK  120  A    between atoms: _301  and  _302
REMARK  121  A    between atoms: _307  and  _309
REMARK  122  A    between atoms: _309  and  _310
REMARK  123  A    between atoms: _309  and  _312
REMARK  124  A    between atoms: _312  and  _313
REMARK  125  A    between atoms: _316  and  _318
REMARK  126  A    between atoms: _318  and  _319
REMARK  127  A    between atoms: _318  and  _321
REMARK  128  A    between atoms: _321  and  _322
REMARK  129  A    between atoms: _325  and  _327
REMARK  130  A    between atoms: _327  and  _328
REMARK  131  A    between atoms: _327  and  _330
REMARK  132  A    between atoms: _330  and  _331
REMARK  133  A    between atoms: _336  and  _337
REMARK  134  A    between atoms: _339  and  _341
REMARK  135  A    between atoms: _341  and  _342
REMARK  136  A    between atoms: _341  and  _344
REMARK  137  A    between atoms: _344  and  _345
REMARK  138  A    between atoms: _351  and  _353
REMARK  139  A    between atoms: _353  and  _354
REMARK  140  A    between atoms: _353  and  _356
REMARK  141  A    between atoms: _356  and  _357
REMARK  142  A    between atoms: _357  and  _358
REMARK                            x       y       z     vdW  Elec       q    Type
REMARK                         _______ _______ _______ _____ _____    ______ ____
ROOT
ATOM      1  O   HOH     1       2.869  20.806  -3.212  0.00  0.00    +0.000 OA
ENDROOT
TORSDOF 0
REMARK  Name = ../refined-set-2016/3dri/3dri_pocket.pdb
REMARK  142 active torsions:
REMARK  status: ('A' for Active; 'I' for Inactive)
REMARK    1  A    between atoms: _1  and  _3
REMARK    2  A    between atoms: _3  and  _4
REMARK    3  A    between atoms: _3  and  _6
REMARK    4  A    between atoms: _6  and  _7
REMARK    5  A    between atoms: _10  and  _12
REMARK    6  A    between atoms: _12  and  _13
REMARK    7  A    between atoms: _12  and  _15
REMARK    8  A    between atoms: _15  and  _16
REMARK    9  A    between atoms: _16  and  _17
REMARK   10  A    between atoms: _17  and  _18
REMARK   11  A    between atoms: _27  and  _29
REMARK   12  A    between atoms: _29  and  _30
REMARK   13  A    between atoms: _29  and  _32
REMARK   14  A    between atoms: _32  and  _33
REMARK   15  A    between atoms: _43  and  _45
REMARK   16  A    between atoms: _45  and  _46
REMARK   17  A    between atoms: _45  and  _48
REMARK   18  A    between atoms: _48  and  _49
REMARK   19  A    between atoms: _52  and  _54
REMARK   20  A    between atoms: _54  and  _55
REMARK   21  A    between atoms: _54  and  _57
REMARK   22  A    between atoms: _57  and  _58
REMARK   23  A    between atoms: _61  and  _63
REMARK   24  A    between atoms: _63  and  _64
REMARK   25  A    between atoms: _63  and  _66
REMARK   26  A    between atoms: _66  and  _67
REMARK   27  A    between atoms: _69  and  _71
REMARK   28  A    between atoms: _71  and  _72
REMARK   29  A    between atoms: _71  and  _74
REMARK   30  A    between atoms: _74  and  _75
REMARK   31  A    between atoms: _78  and  _80
REMARK   32  A    between atoms: _80  and  _81
REMARK   33  A    between atoms: _83  and  _85
REMARK   34  A    between atoms: _85  and  _86
REMARK   35  A    between atoms: _85  and  _88
REMARK   36  A    between atoms: _88  and  _89
REMARK   37  A    between atoms: _94  and  _96
REMARK   38  A    between atoms: _96  and  _97
REMARK   39  A    between atoms: _99  and  _101
REMARK   40  A    between atoms: _101  and  _102
REMARK   41  A    between atoms: _101  and  _104
REMARK   42  A    between atoms: _104  and  _105
REMARK   43  A    between atoms: _105  and  _106
REMARK   44  A    between atoms: _108  and  _110
REMARK   45  A    between atoms: _110  and  _111
REMARK   46  A    between atoms: _110  and  _113
REMARK   47  A    between atoms: _113  and  _114
REMARK   48  A    between atoms: _119  and  _120
REMARK   49  A    between atoms: _122  and  _124
REMARK   50  A    between atoms: _124  and  _125
REMARK   51  A    between atoms: _124  and  _127
REMARK   52  A    between atoms: _127  and  _128
REMARK   53  A    between atoms: _131  and  _133
REMARK   54  A    between atoms: _133  and  _134
REMARK   55  A    between atoms: _133  and  _136
REMARK   56  A    between atoms: _136  and  _137
REMARK   57  A    between atoms: _139  and  _141
REMARK   58  A    between atoms: _141  and  _142
REMARK   59  A    between atoms: _141  and  _144
REMARK   60  A    between atoms: _144  and  _145
REMARK   61  A    between atoms: _148  and  _150
REMARK   62  A    between atoms: _150  and  _151
REMARK   63  A    between atoms: _150  and  _153
REMARK   64  A    between atoms: _153  and  _154
REMARK   65  A    between atoms: _154  and  _155
REMARK   66  A    between atoms: _155  and  _156
REMARK   67  A    between atoms: _165  and  _167
REMARK   68  A    between atoms: _167  and  _168
REMARK   69  A    between atoms: _167  and  _170
REMARK   70  A    between atoms: _170  and  _171
REMARK   71  A    between atoms: _177  and  _179
REMARK   72  A    between atoms: _179  and  _180
REMARK   73  A    between atoms: _179  and  _182
REMARK   74  A    between atoms: _182  and  _183
REMARK   75  A    between atoms: _193  and  _195
REMARK   76  A    between atoms: _195  and  _196
REMARK   77  A    between atoms: _195  and  _198
REMARK   78  A    between atoms: _201  and  _203
REMARK   79  A    between atoms: _203  and  _204
REMARK   80  A    between atoms: _203  and  _206
REMARK   81  A    between atoms: _206  and  _207
REMARK   82  A    between atoms: _210  and  _212
REMARK   83  A    between atoms: _212  and  _213
REMARK   84  A    between atoms: _215  and  _217
REMARK   85  A    between atoms: _217  and  _218
REMARK   86  A    between atoms: _217  and  _220
REMARK   87  A    between atoms: _220  and  _221
REMARK   88  A    between atoms: _223  and  _225
REMARK   89  A    between atoms: _225  and  _226
REMARK   90  A    between atoms: _225  and  _228
REMARK   91  A    between atoms: _228  and  _229
REMARK   92  A    between atoms: _239  and  _241
REMARK   93  A    between atoms: _241  and  _242
REMARK   94  A    between atoms: _241  and  _244
REMARK   95  A    between atoms: _244  and  _245
REMARK   96  A    between atoms: _247  and  _249
REMARK   97  A    between atoms: _249  and  _250
REMARK   98  A    between atoms: _249  and  _252
REMARK   99  A    between atoms: _252  and  _253
REMARK  100  A    between atoms: _256  and  _258
REMARK  101  A    between atoms: _258  and  _259
REMARK  102  A    between atoms: _262  and  _264
REMARK  103  A    between atoms: _264  and  _265
REMARK  104  A    between atoms: _264  and  _267
REMARK  105  A    between atoms: _267  and  _268
REMARK  106  A    between atoms: _270  and  _272
REMARK  107  A    between atoms: _272  and  _273
REMARK  108  A    between atoms: _272  and  _275
REMARK  109  A    between atoms: _275  and  _276
REMARK  110  A    between atoms: _276  and  _277
REMARK  111  A    between atoms: _281  and  _282
REMARK  112  A    between atoms: _287  and  _289
REMARK  113  A    between atoms: _289  and  _290
REMARK  114  A    between atoms: _289  and  _292
REMARK  115  A    between atoms: _292  and  _293
REMARK  116  A    between atoms: _295  and  _297
REMARK  117  A    between atoms: _297  and  _298
REMARK  118  A    between atoms: _297  and  _300
REMARK  119  A    between atoms: _300  and  _301
REMARK  120  A    between atoms: _301  and  _302
REMARK  121  A    between atoms: _307  and  _309
REMARK  122  A    between atoms: _309  and  _310
REMARK  123  A    between atoms: _309  and  _312
REMARK  124  A    between atoms: _312  and  _313
REMARK  125  A    between atoms: _316  and  _318
REMARK  126  A    between atoms: _318  and  _319
REMARK  127  A    between atoms: _318  and  _321
REMARK  128  A    between atoms: _321  and  _322
REMARK  129  A    between atoms: _325  and  _327
REMARK  130  A    between atoms: _327  and  _328
REMARK  131  A    between atoms: _327  and  _330
REMARK  132  A    between atoms: _330  and  _331
REMARK  133  A    between atoms: _336  and  _337
REMARK  134  A    between atoms: _339  and  _341
REMARK  135  A    between atoms: _341  and  _342
REMARK  136  A    between atoms: _341  and  _344
REMARK  137  A    between atoms: _344  and  _345
REMARK  138  A    between atoms: _351  and  _353
REMARK  139  A    between atoms: _353  and  _354
REMARK  140  A    between atoms: _353  and  _356
REMARK  141  A    between atoms: _356  and  _357
REMARK  142  A    between atoms: _357  and  _358
REMARK                            x       y       z     vdW  Elec       q    Type
REMARK                         _______ _______ _______ _____ _____    ______ ____
ROOT
ATOM      1  O   HOH     1      -7.412  17.693  -5.039  0.00  0.00    +0.000 OA
ENDROOT
TORSDOF 0
REMARK  Name = ../refined-set-2016/3dri/3dri_pocket.pdb
REMARK  142 active torsions:
REMARK  status: ('A' for Active; 'I' for Inactive)
REMARK    1  A    between atoms: _1  and  _3
REMARK    2  A    between atoms: _3  and  _4
REMARK    3  A    between atoms: _3  and  _6
REMARK    4  A    between atoms: _6  and  _7
REMARK    5  A    between atoms: _10  and  _12
REMARK    6  A    between atoms: _12  and  _13
REMARK    7  A    between atoms: _12  and  _15
REMARK    8  A    between atoms: _15  and  _16
REMARK    9  A    between atoms: _16  and  _17
REMARK   10  A    between atoms: _17  and  _18
REMARK   11  A    between atoms: _27  and  _29
REMARK   12  A    between atoms: _29  and  _30
REMARK   13  A    between atoms: _29  and  _32
REMARK   14  A    between atoms: _32  and  _33
REMARK   15  A    between atoms: _43  and  _45
REMARK   16  A    between atoms: _45  and  _46
REMARK   17  A    between atoms: _45  and  _48
REMARK   18  A    between atoms: _48  and  _49
REMARK   19  A    between atoms: _52  and  _54
REMARK   20  A    between atoms: _54  and  _55
REMARK   21  A    between atoms: _54  and  _57
REMARK   22  A    between atoms: _57  and  _58
REMARK   23  A    between atoms: _61  and  _63
REMARK   24  A    between atoms: _63  and  _64
REMARK   25  A    between atoms: _63  and  _66
REMARK   26  A    between atoms: _66  and  _67
REMARK   27  A    between atoms: _69  and  _71
REMARK   28  A    between atoms: _71  and  _72
REMARK   29  A    between atoms: _71  and  _74
REMARK   30  A    between atoms: _74  and  _75
REMARK   31  A    between atoms: _78  and  _80
REMARK   32  A    between atoms: _80  and  _81
REMARK   33  A    between atoms: _83  and  _85
REMARK   34  A    between atoms: _85  and  _86
REMARK   35  A    between atoms: _85  and  _88
REMARK   36  A    between atoms: _88  and  _89
REMARK   37  A    between atoms: _94  and  _96
REMARK   38  A    between atoms: _96  and  _97
REMARK   39  A    between atoms: _99  and  _101
REMARK   40  A    between atoms: _101  and  _102
REMARK   41  A    between atoms: _101  and  _104
REMARK   42  A    between atoms: _104  and  _105
REMARK   43  A    between atoms: _105  and  _106
REMARK   44  A    between atoms: _108  and  _110
REMARK   45  A    between atoms: _110  and  _111
REMARK   46  A    between atoms: _110  and  _113
REMARK   47  A    between atoms: _113  and  _114
REMARK   48  A    between atoms: _119  and  _120
REMARK   49  A    between atoms: _122  and  _124
REMARK   50  A    between atoms: _124  and  _125
REMARK   51  A    between atoms: _124  and  _127
REMARK   52  A    between atoms: _127  and  _128
REMARK   53  A    between atoms: _131  and  _133
REMARK   54  A    between atoms: _133  and  _134
REMARK   55  A    between atoms: _133  and  _136
REMARK   56  A    between atoms: _136  and  _137
REMARK   57  A    between atoms: _139  and  _141
REMARK   58  A    between atoms: _141  and  _142
REMARK   59  A    between atoms: _141  and  _144
REMARK   60  A    between atoms: _144  and  _145
REMARK   61  A    between atoms: _148  and  _150
REMARK   62  A    between atoms: _150  and  _151
REMARK   63  A    between atoms: _150  and  _153
REMARK   64  A    between atoms: _153  and  _154
REMARK   65  A    between atoms: _154  and  _155
REMARK   66  A    between atoms: _155  and  _156
REMARK   67  A    between atoms: _165  and  _167
REMARK   68  A    between atoms: _167  and  _168
REMARK   69  A    between atoms: _167  and  _170
REMARK   70  A    between atoms: _170  and  _171
REMARK   71  A    between atoms: _177  and  _179
REMARK   72  A    between atoms: _179  and  _180
REMARK   73  A    between atoms: _179  and  _182
REMARK   74  A    between atoms: _182  and  _183
REMARK   75  A    between atoms: _193  and  _195
REMARK   76  A    between atoms: _195  and  _196
REMARK   77  A    between atoms: _195  and  _198
REMARK   78  A    between atoms: _201  and  _203
REMARK   79  A    between atoms: _203  and  _204
REMARK   80  A    between atoms: _203  and  _206
REMARK   81  A    between atoms: _206  and  _207
REMARK   82  A    between atoms: _210  and  _212
REMARK   83  A    between atoms: _212  and  _213
REMARK   84  A    between atoms: _215  and  _217
REMARK   85  A    between atoms: _217  and  _218
REMARK   86  A    between atoms: _217  and  _220
REMARK   87  A    between atoms: _220  and  _221
REMARK   88  A    between atoms: _223  and  _225
REMARK   89  A    between atoms: _225  and  _226
REMARK   90  A    between atoms: _225  and  _228
REMARK   91  A    between atoms: _228  and  _229
REMARK   92  A    between atoms: _239  and  _241
REMARK   93  A    between atoms: _241  and  _242
REMARK   94  A    between atoms: _241  and  _244
REMARK   95  A    between atoms: _244  and  _245
REMARK   96  A    between atoms: _247  and  _249
REMARK   97  A    between atoms: _249  and  _250
REMARK   98  A    between atoms: _249  and  _252
REMARK   99  A    between atoms: _252  and  _253
REMARK  100  A    between atoms: _256  and  _258
REMARK  101  A    between atoms: _258  and  _259
REMARK  102  A    between atoms: _262  and  _264
REMARK  103  A    between atoms: _264  and  _265
REMARK  104  A    between atoms: _264  and  _267
REMARK  105  A    between atoms: _267  and  _268
REMARK  106  A    between atoms: _270  and  _272
REMARK  107  A    between atoms: _272  and  _273
REMARK  108  A    between atoms: _272  and  _275
REMARK  109  A    between atoms: _275  and  _276
REMARK  110  A    between atoms: _276  and  _277
REMARK  111  A    between atoms: _281  and  _282
REMARK  112  A    between atoms: _287  and  _289
REMARK  113  A    between atoms: _289  and  _290
REMARK  114  A    between atoms: _289  and  _292
REMARK  115  A    between atoms: _292  and  _293
REMARK  116  A    between atoms: _295  and  _297
REMARK  117  A    between atoms: _297  and  _298
REMARK  118  A    between atoms: _297  and  _300
REMARK  119  A    between atoms: _300  and  _301
REMARK  120  A    between atoms: _301  and  _302
REMARK  121  A    between atoms: _307  and  _309
REMARK  122  A    between atoms: _309  and  _310
REMARK  123  A    between atoms: _309  and  _312
REMARK  124  A    between atoms: _312  and  _313
REMARK  125  A    between atoms: _316  and  _318
REMARK  126  A    between atoms: _318  and  _319
REMARK  127  A    between atoms: _318  and  _321
REMARK  128  A    between atoms: _321  and  _322
REMARK  129  A    between atoms: _325  and  _327
REMARK  130  A    between atoms: _327  and  _328
REMARK  131  A    between atoms: _327  and  _330
REMARK  132  A    between atoms: _330  and  _331
REMARK  133  A    between atoms: _336  and  _337
REMARK  134  A    between atoms: _339  and  _341
REMARK  135  A    between atoms: _341  and  _342
REMARK  136  A    between atoms: _341  and  _344
REMARK  137  A    between atoms: _344  and  _345
REMARK  138  A    between atoms: _351  and  _353
REMARK  139  A    between atoms: _353  and  _354
REMARK  140  A    between atoms: _353  and  _356
REMARK  141  A    between atoms: _356  and  _357
REMARK  142  A    between atoms: _357  and  _358
REMARK                            x       y       z     vdW  Elec       q    Type
REMARK                         _______ _______ _______ _____ _____    ______ ____
ROOT
ATOM      1  O   HOH     1      -6.839  25.785   0.158  0.00  0.00    +0.000 OA
ENDROOT
TORSDOF 0
REMARK  Name = ../refined-set-2016/3dri/3dri_pocket.pdb
REMARK  142 active torsions:
REMARK  status: ('A' for Active; 'I' for Inactive)
REMARK    1  A    between atoms: _1  and  _3
REMARK    2  A    between atoms: _3  and  _4
REMARK    3  A    between atoms: _3  and  _6
REMARK    4  A    between atoms: _6  and  _7
REMARK    5  A    between atoms: _10  and  _12
REMARK    6  A    between atoms: _12  and  _13
REMARK    7  A    between atoms: _12  and  _15
REMARK    8  A    between atoms: _15  and  _16
REMARK    9  A    between atoms: _16  and  _17
REMARK   10  A    between atoms: _17  and  _18
REMARK   11  A    between atoms: _27  and  _29
REMARK   12  A    between atoms: _29  and  _30
REMARK   13  A    between atoms: _29  and  _32
REMARK   14  A    between atoms: _32  and  _33
REMARK   15  A    between atoms: _43  and  _45
REMARK   16  A    between atoms: _45  and  _46
REMARK   17  A    between atoms: _45  and  _48
REMARK   18  A    between atoms: _48  and  _49
REMARK   19  A    between atoms: _52  and  _54
REMARK   20  A    between atoms: _54  and  _55
REMARK   21  A    between atoms: _54  and  _57
REMARK   22  A    between atoms: _57  and  _58
REMARK   23  A    between atoms: _61  and  _63
REMARK   24  A    between atoms: _63  and  _64
REMARK   25  A    between atoms: _63  and  _66
REMARK   26  A    between atoms: _66  and  _67
REMARK   27  A    between atoms: _69  and  _71
REMARK   28  A    between atoms: _71  and  _72
REMARK   29  A    between atoms: _71  and  _74
REMARK   30  A    between atoms: _74  and  _75
REMARK   31  A    between atoms: _78  and  _80
REMARK   32  A    between atoms: _80  and  _81
REMARK   33  A    between atoms: _83  and  _85
REMARK   34  A    between atoms: _85  and  _86
REMARK   35  A    between atoms: _85  and  _88
REMARK   36  A    between atoms: _88  and  _89
REMARK   37  A    between atoms: _94  and  _96
REMARK   38  A    between atoms: _96  and  _97
REMARK   39  A    between atoms: _99  and  _101
REMARK   40  A    between atoms: _101  and  _102
REMARK   41  A    between atoms: _101  and  _104
REMARK   42  A    between atoms: _104  and  _105
REMARK   43  A    between atoms: _105  and  _106
REMARK   44  A    between atoms: _108  and  _110
REMARK   45  A    between atoms: _110  and  _111
REMARK   46  A    between atoms: _110  and  _113
REMARK   47  A    between atoms: _113  and  _114
REMARK   48  A    between atoms: _119  and  _120
REMARK   49  A    between atoms: _122  and  _124
REMARK   50  A    between atoms: _124  and  _125
REMARK   51  A    between atoms: _124  and  _127
REMARK   52  A    between atoms: _127  and  _128
REMARK   53  A    between atoms: _131  and  _133
REMARK   54  A    between atoms: _133  and  _134
REMARK   55  A    between atoms: _133  and  _136
REMARK   56  A    between atoms: _136  and  _137
REMARK   57  A    between atoms: _139  and  _141
REMARK   58  A    between atoms: _141  and  _142
REMARK   59  A    between atoms: _141  and  _144
REMARK   60  A    between atoms: _144  and  _145
REMARK   61  A    between atoms: _148  and  _150
REMARK   62  A    between atoms: _150  and  _151
REMARK   63  A    between atoms: _150  and  _153
REMARK   64  A    between atoms: _153  and  _154
REMARK   65  A    between atoms: _154  and  _155
REMARK   66  A    between atoms: _155  and  _156
REMARK   67  A    between atoms: _165  and  _167
REMARK   68  A    between atoms: _167  and  _168
REMARK   69  A    between atoms: _167  and  _170
REMARK   70  A    between atoms: _170  and  _171
REMARK   71  A    between atoms: _177  and  _179
REMARK   72  A    between atoms: _179  and  _180
REMARK   73  A    between atoms: _179  and  _182
REMARK   74  A    between atoms: _182  and  _183
REMARK   75  A    between atoms: _193  and  _195
REMARK   76  A    between atoms: _195  and  _196
REMARK   77  A    between atoms: _195  and  _198
REMARK   78  A    between atoms: _201  and  _203
REMARK   79  A    between atoms: _203  and  _204
REMARK   80  A    between atoms: _203  and  _206
REMARK   81  A    between atoms: _206  and  _207
REMARK   82  A    between atoms: _210  and  _212
REMARK   83  A    between atoms: _212  and  _213
REMARK   84  A    between atoms: _215  and  _217
REMARK   85  A    between atoms: _217  and  _218
REMARK   86  A    between atoms: _217  and  _220
REMARK   87  A    between atoms: _220  and  _221
REMARK   88  A    between atoms: _223  and  _225
REMARK   89  A    between atoms: _225  and  _226
REMARK   90  A    between atoms: _225  and  _228
REMARK   91  A    between atoms: _228  and  _229
REMARK   92  A    between atoms: _239  and  _241
REMARK   93  A    between atoms: _241  and  _242
REMARK   94  A    between atoms: _241  and  _244
REMARK   95  A    between atoms: _244  and  _245
REMARK   96  A    between atoms: _247  and  _249
REMARK   97  A    between atoms: _249  and  _250
REMARK   98  A    between atoms: _249  and  _252
REMARK   99  A    between atoms: _252  and  _253
REMARK  100  A    between atoms: _256  and  _258
REMARK  101  A    between atoms: _258  and  _259
REMARK  102  A    between atoms: _262  and  _264
REMARK  103  A    between atoms: _264  and  _265
REMARK  104  A    between atoms: _264  and  _267
REMARK  105  A    between atoms: _267  and  _268
REMARK  106  A    between atoms: _270  and  _272
REMARK  107  A    between atoms: _272  and  _273
REMARK  108  A    between atoms: _272  and  _275
REMARK  109  A    between atoms: _275  and  _276
REMARK  110  A    between atoms: _276  and  _277
REMARK  111  A    between atoms: _281  and  _282
REMARK  112  A    between atoms: _287  and  _289
REMARK  113  A    between atoms: _289  and  _290
REMARK  114  A    between atoms: _289  and  _292
REMARK  115  A    between atoms: _292  and  _293
REMARK  116  A    between atoms: _295  and  _297
REMARK  117  A    between atoms: _297  and  _298
REMARK  118  A    between atoms: _297  and  _300
REMARK  119  A    between atoms: _300  and  _301
REMARK  120  A    between atoms: _301  and  _302
REMARK  121  A    between atoms: _307  and  _309
REMARK  122  A    between atoms: _309  and  _310
REMARK  123  A    between atoms: _309  and  _312
REMARK  124  A    between atoms: _312  and  _313
REMARK  125  A    between atoms: _316  and  _318
REMARK  126  A    between atoms: _318  and  _319
REMARK  127  A    between atoms: _318  and  _321
REMARK  128  A    between atoms: _321  and  _322
REMARK  129  A    between atoms: _325  and  _327
REMARK  130  A    between atoms: _327  and  _328
REMARK  131  A    between atoms: _327  and  _330
REMARK  132  A    between atoms: _330  and  _331
REMARK  133  A    between atoms: _336  and  _337
REMARK  134  A    between atoms: _339  and  _341
REMARK  135  A    between atoms: _341  and  _342
REMARK  136  A    between atoms: _341  and  _344
REMARK  137  A    between atoms: _344  and  _345
REMARK  138  A    between atoms: _351  and  _353
REMARK  139  A    between atoms: _353  and  _354
REMARK  140  A    between atoms: _353  and  _356
REMARK  141  A    between atoms: _356  and  _357
REMARK  142  A    between atoms: _357  and  _358
REMARK                            x       y       z     vdW  Elec       q    Type
REMARK                         _______ _______ _______ _____ _____    ______ ____
ROOT
ATOM      1  O   HOH     1      -2.366  21.946  -5.148  0.00  0.00    +0.000 OA
ENDROOT
TORSDOF 0
REMARK  Name = ../refined-set-2016/3dri/3dri_pocket.pdb
REMARK  142 active torsions:
REMARK  status: ('A' for Active; 'I' for Inactive)
REMARK    1  A    between atoms: _1  and  _3
REMARK    2  A    between atoms: _3  and  _4
REMARK    3  A    between atoms: _3  and  _6
REMARK    4  A    between atoms: _6  and  _7
REMARK    5  A    between atoms: _10  and  _12
REMARK    6  A    between atoms: _12  and  _13
REMARK    7  A    between atoms: _12  and  _15
REMARK    8  A    between atoms: _15  and  _16
REMARK    9  A    between atoms: _16  and  _17
REMARK   10  A    between atoms: _17  and  _18
REMARK   11  A    between atoms: _27  and  _29
REMARK   12  A    between atoms: _29  and  _30
REMARK   13  A    between atoms: _29  and  _32
REMARK   14  A    between atoms: _32  and  _33
REMARK   15  A    between atoms: _43  and  _45
REMARK   16  A    between atoms: _45  and  _46
REMARK   17  A    between atoms: _45  and  _48
REMARK   18  A    between atoms: _48  and  _49
REMARK   19  A    between atoms: _52  and  _54
REMARK   20  A    between atoms: _54  and  _55
REMARK   21  A    between atoms: _54  and  _57
REMARK   22  A    between atoms: _57  and  _58
REMARK   23  A    between atoms: _61  and  _63
REMARK   24  A    between atoms: _63  and  _64
REMARK   25  A    between atoms: _63  and  _66
REMARK   26  A    between atoms: _66  and  _67
REMARK   27  A    between atoms: _69  and  _71
REMARK   28  A    between atoms: _71  and  _72
REMARK   29  A    between atoms: _71  and  _74
REMARK   30  A    between atoms: _74  and  _75
REMARK   31  A    between atoms: _78  and  _80
REMARK   32  A    between atoms: _80  and  _81
REMARK   33  A    between atoms: _83  and  _85
REMARK   34  A    between atoms: _85  and  _86
REMARK   35  A    between atoms: _85  and  _88
REMARK   36  A    between atoms: _88  and  _89
REMARK   37  A    between atoms: _94  and  _96
REMARK   38  A    between atoms: _96  and  _97
REMARK   39  A    between atoms: _99  and  _101
REMARK   40  A    between atoms: _101  and  _102
REMARK   41  A    between atoms: _101  and  _104
REMARK   42  A    between atoms: _104  and  _105
REMARK   43  A    between atoms: _105  and  _106
REMARK   44  A    between atoms: _108  and  _110
REMARK   45  A    between atoms: _110  and  _111
REMARK   46  A    between atoms: _110  and  _113
REMARK   47  A    between atoms: _113  and  _114
REMARK   48  A    between atoms: _119  and  _120
REMARK   49  A    between atoms: _122  and  _124
REMARK   50  A    between atoms: _124  and  _125
REMARK   51  A    between atoms: _124  and  _127
REMARK   52  A    between atoms: _127  and  _128
REMARK   53  A    between atoms: _131  and  _133
REMARK   54  A    between atoms: _133  and  _134
REMARK   55  A    between atoms: _133  and  _136
REMARK   56  A    between atoms: _136  and  _137
REMARK   57  A    between atoms: _139  and  _141
REMARK   58  A    between atoms: _141  and  _142
REMARK   59  A    between atoms: _141  and  _144
REMARK   60  A    between atoms: _144  and  _145
REMARK   61  A    between atoms: _148  and  _150
REMARK   62  A    between atoms: _150  and  _151
REMARK   63  A    between atoms: _150  and  _153
REMARK   64  A    between atoms: _153  and  _154
REMARK   65  A    between atoms: _154  and  _155
REMARK   66  A    between atoms: _155  and  _156
REMARK   67  A    between atoms: _165  and  _167
REMARK   68  A    between atoms: _167  and  _168
REMARK   69  A    between atoms: _167  and  _170
REMARK   70  A    between atoms: _170  and  _171
REMARK   71  A    between atoms: _177  and  _179
REMARK   72  A    between atoms: _179  and  _180
REMARK   73  A    between atoms: _179  and  _182
REMARK   74  A    between atoms: _182  and  _183
REMARK   75  A    between atoms: _193  and  _195
REMARK   76  A    between atoms: _195  and  _196
REMARK   77  A    between atoms: _195  and  _198
REMARK   78  A    between atoms: _201  and  _203
REMARK   79  A    between atoms: _203  and  _204
REMARK   80  A    between atoms: _203  and  _206
REMARK   81  A    between atoms: _206  and  _207
REMARK   82  A    between atoms: _210  and  _212
REMARK   83  A    between atoms: _212  and  _213
REMARK   84  A    between atoms: _215  and  _217
REMARK   85  A    between atoms: _217  and  _218
REMARK   86  A    between atoms: _217  and  _220
REMARK   87  A    between atoms: _220  and  _221
REMARK   88  A    between atoms: _223  and  _225
REMARK   89  A    between atoms: _225  and  _226
REMARK   90  A    between atoms: _225  and  _228
REMARK   91  A    between atoms: _228  and  _229
REMARK   92  A    between atoms: _239  and  _241
REMARK   93  A    between atoms: _241  and  _242
REMARK   94  A    between atoms: _241  and  _244
REMARK   95  A    between atoms: _244  and  _245
REMARK   96  A    between atoms: _247  and  _249
REMARK   97  A    between atoms: _249  and  _250
REMARK   98  A    between atoms: _249  and  _252
REMARK   99  A    between atoms: _252  and  _253
REMARK  100  A    between atoms: _256  and  _258
REMARK  101  A    between atoms: _258  and  _259
REMARK  102  A    between atoms: _262  and  _264
REMARK  103  A    between atoms: _264  and  _265
REMARK  104  A    between atoms: _264  and  _267
REMARK  105  A    between atoms: _267  and  _268
REMARK  106  A    between atoms: _270  and  _272
REMARK  107  A    between atoms: _272  and  _273
REMARK  108  A    between atoms: _272  and  _275
REMARK  109  A    between atoms: _275  and  _276
REMARK  110  A    between atoms: _276  and  _277
REMARK  111  A    between atoms: _281  and  _282
REMARK  112  A    between atoms: _287  and  _289
REMARK  113  A    between atoms: _289  and  _290
REMARK  114  A    between atoms: _289  and  _292
REMARK  115  A    between atoms: _292  and  _293
REMARK  116  A    between atoms: _295  and  _297
REMARK  117  A    between atoms: _297  and  _298
REMARK  118  A    between atoms: _297  and  _300
REMARK  119  A    between atoms: _300  and  _301
REMARK  120  A    between atoms: _301  and  _302
REMARK  121  A    between atoms: _307  and  _309
REMARK  122  A    between atoms: _309  and  _310
REMARK  123  A    between atoms: _309  and  _312
REMARK  124  A    between atoms: _312  and  _313
REMARK  125  A    between atoms: _316  and  _318
REMARK  126  A    between atoms: _318  and  _319
REMARK  127  A    between atoms: _318  and  _321
REMARK  128  A    between atoms: _321  and  _322
REMARK  129  A    between atoms: _325  and  _327
REMARK  130  A    between atoms: _327  and  _328
REMARK  131  A    between atoms: _327  and  _330
REMARK  132  A    between atoms: _330  and  _331
REMARK  133  A    between atoms: _336  and  _337
REMARK  134  A    between atoms: _339  and  _341
REMARK  135  A    between atoms: _341  and  _342
REMARK  136  A    between atoms: _341  and  _344
REMARK  137  A    between atoms: _344  and  _345
REMARK  138  A    between atoms: _351  and  _353
REMARK  139  A    between atoms: _353  and  _354
REMARK  140  A    between atoms: _353  and  _356
REMARK  141  A    between atoms: _356  and  _357
REMARK  142  A    between atoms: _357  and  _358
REMARK                            x       y       z     vdW  Elec       q    Type
REMARK                         _______ _______ _______ _____ _____    ______ ____
ROOT
ATOM      1  O   HOH     1      -1.867  23.482  -2.869  0.00  0.00    +0.000 OA
ENDROOT
TORSDOF 0
REMARK  Name = ../refined-set-2016/3dri/3dri_pocket.pdb
REMARK  142 active torsions:
REMARK  status: ('A' for Active; 'I' for Inactive)
REMARK    1  A    between atoms: _1  and  _3
REMARK    2  A    between atoms: _3  and  _4
REMARK    3  A    between atoms: _3  and  _6
REMARK    4  A    between atoms: _6  and  _7
REMARK    5  A    between atoms: _10  and  _12
REMARK    6  A    between atoms: _12  and  _13
REMARK    7  A    between atoms: _12  and  _15
REMARK    8  A    between atoms: _15  and  _16
REMARK    9  A    between atoms: _16  and  _17
REMARK   10  A    between atoms: _17  and  _18
REMARK   11  A    between atoms: _27  and  _29
REMARK   12  A    between atoms: _29  and  _30
REMARK   13  A    between atoms: _29  and  _32
REMARK   14  A    between atoms: _32  and  _33
REMARK   15  A    between atoms: _43  and  _45
REMARK   16  A    between atoms: _45  and  _46
REMARK   17  A    between atoms: _45  and  _48
REMARK   18  A    between atoms: _48  and  _49
REMARK   19  A    between atoms: _52  and  _54
REMARK   20  A    between atoms: _54  and  _55
REMARK   21  A    between atoms: _54  and  _57
REMARK   22  A    between atoms: _57  and  _58
REMARK   23  A    between atoms: _61  and  _63
REMARK   24  A    between atoms: _63  and  _64
REMARK   25  A    between atoms: _63  and  _66
REMARK   26  A    between atoms: _66  and  _67
REMARK   27  A    between atoms: _69  and  _71
REMARK   28  A    between atoms: _71  and  _72
REMARK   29  A    between atoms: _71  and  _74
REMARK   30  A    between atoms: _74  and  _75
REMARK   31  A    between atoms: _78  and  _80
REMARK   32  A    between atoms: _80  and  _81
REMARK   33  A    between atoms: _83  and  _85
REMARK   34  A    between atoms: _85  and  _86
REMARK   35  A    between atoms: _85  and  _88
REMARK   36  A    between atoms: _88  and  _89
REMARK   37  A    between atoms: _94  and  _96
REMARK   38  A    between atoms: _96  and  _97
REMARK   39  A    between atoms: _99  and  _101
REMARK   40  A    between atoms: _101  and  _102
REMARK   41  A    between atoms: _101  and  _104
REMARK   42  A    between atoms: _104  and  _105
REMARK   43  A    between atoms: _105  and  _106
REMARK   44  A    between atoms: _108  and  _110
REMARK   45  A    between atoms: _110  and  _111
REMARK   46  A    between atoms: _110  and  _113
REMARK   47  A    between atoms: _113  and  _114
REMARK   48  A    between atoms: _119  and  _120
REMARK   49  A    between atoms: _122  and  _124
REMARK   50  A    between atoms: _124  and  _125
REMARK   51  A    between atoms: _124  and  _127
REMARK   52  A    between atoms: _127  and  _128
REMARK   53  A    between atoms: _131  and  _133
REMARK   54  A    between atoms: _133  and  _134
REMARK   55  A    between atoms: _133  and  _136
REMARK   56  A    between atoms: _136  and  _137
REMARK   57  A    between atoms: _139  and  _141
REMARK   58  A    between atoms: _141  and  _142
REMARK   59  A    between atoms: _141  and  _144
REMARK   60  A    between atoms: _144  and  _145
REMARK   61  A    between atoms: _148  and  _150
REMARK   62  A    between atoms: _150  and  _151
REMARK   63  A    between atoms: _150  and  _153
REMARK   64  A    between atoms: _153  and  _154
REMARK   65  A    between atoms: _154  and  _155
REMARK   66  A    between atoms: _155  and  _156
REMARK   67  A    between atoms: _165  and  _167
REMARK   68  A    between atoms: _167  and  _168
REMARK   69  A    between atoms: _167  and  _170
REMARK   70  A    between atoms: _170  and  _171
REMARK   71  A    between atoms: _177  and  _179
REMARK   72  A    between atoms: _179  and  _180
REMARK   73  A    between atoms: _179  and  _182
REMARK   74  A    between atoms: _182  and  _183
REMARK   75  A    between atoms: _193  and  _195
REMARK   76  A    between atoms: _195  and  _196
REMARK   77  A    between atoms: _195  and  _198
REMARK   78  A    between atoms: _201  and  _203
REMARK   79  A    between atoms: _203  and  _204
REMARK   80  A    between atoms: _203  and  _206
REMARK   81  A    between atoms: _206  and  _207
REMARK   82  A    between atoms: _210  and  _212
REMARK   83  A    between atoms: _212  and  _213
REMARK   84  A    between atoms: _215  and  _217
REMARK   85  A    between atoms: _217  and  _218
REMARK   86  A    between atoms: _217  and  _220
REMARK   87  A    between atoms: _220  and  _221
REMARK   88  A    between atoms: _223  and  _225
REMARK   89  A    between atoms: _225  and  _226
REMARK   90  A    between atoms: _225  and  _228
REMARK   91  A    between atoms: _228  and  _229
REMARK   92  A    between atoms: _239  and  _241
REMARK   93  A    between atoms: _241  and  _242
REMARK   94  A    between atoms: _241  and  _244
REMARK   95  A    between atoms: _244  and  _245
REMARK   96  A    between atoms: _247  and  _249
REMARK   97  A    between atoms: _249  and  _250
REMARK   98  A    between atoms: _249  and  _252
REMARK   99  A    between atoms: _252  and  _253
REMARK  100  A    between atoms: _256  and  _258
REMARK  101  A    between atoms: _258  and  _259
REMARK  102  A    between atoms: _262  and  _264
REMARK  103  A    between atoms: _264  and  _265
REMARK  104  A    between atoms: _264  and  _267
REMARK  105  A    between atoms: _267  and  _268
REMARK  106  A    between atoms: _270  and  _272
REMARK  107  A    between atoms: _272  and  _273
REMARK  108  A    between atoms: _272  and  _275
REMARK  109  A    between atoms: _275  and  _276
REMARK  110  A    between atoms: _276  and  _277
REMARK  111  A    between atoms: _281  and  _282
REMARK  112  A    between atoms: _287  and  _289
REMARK  113  A    between atoms: _289  and  _290
REMARK  114  A    between atoms: _289  and  _292
REMARK  115  A    between atoms: _292  and  _293
REMARK  116  A    between atoms: _295  and  _297
REMARK  117  A    between atoms: _297  and  _298
REMARK  118  A    between atoms: _297  and  _300
REMARK  119  A    between atoms: _300  and  _301
REMARK  120  A    between atoms: _301  and  _302
REMARK  121  A    between atoms: _307  and  _309
REMARK  122  A    between atoms: _309  and  _310
REMARK  123  A    between atoms: _309  and  _312
REMARK  124  A    between atoms: _312  and  _313
REMARK  125  A    between atoms: _316  and  _318
REMARK  126  A    between atoms: _318  and  _319
REMARK  127  A    between atoms: _318  and  _321
REMARK  128  A    between atoms: _321  and  _322
REMARK  129  A    between atoms: _325  and  _327
REMARK  130  A    between atoms: _327  and  _328
REMARK  131  A    between atoms: _327  and  _330
REMARK  132  A    between atoms: _330  and  _331
REMARK  133  A    between atoms: _336  and  _337
REMARK  134  A    between atoms: _339  and  _341
REMARK  135  A    between atoms: _341  and  _342
REMARK  136  A    between atoms: _341  and  _344
REMARK  137  A    between atoms: _344  and  _345
REMARK  138  A    between atoms: _351  and  _353
REMARK  139  A    between atoms: _353  and  _354
REMARK  140  A    between atoms: _353  and  _356
REMARK  141  A    between atoms: _356  and  _357
REMARK  142  A    between atoms: _357  and  _358
REMARK                            x       y       z     vdW  Elec       q    Type
REMARK                         _______ _______ _______ _____ _____    ______ ____
ROOT
ATOM      1  O   HOH     1      -7.156  20.369  -3.991  0.00  0.00    +0.000 OA
ENDROOT
TORSDOF 0
REMARK  Name = ../refined-set-2016/3dri/3dri_pocket.pdb
REMARK  142 active torsions:
REMARK  status: ('A' for Active; 'I' for Inactive)
REMARK    1  A    between atoms: _1  and  _3
REMARK    2  A    between atoms: _3  and  _4
REMARK    3  A    between atoms: _3  and  _6
REMARK    4  A    between atoms: _6  and  _7
REMARK    5  A    between atoms: _10  and  _12
REMARK    6  A    between atoms: _12  and  _13
REMARK    7  A    between atoms: _12  and  _15
REMARK    8  A    between atoms: _15  and  _16
REMARK    9  A    between atoms: _16  and  _17
REMARK   10  A    between atoms: _17  and  _18
REMARK   11  A    between atoms: _27  and  _29
REMARK   12  A    between atoms: _29  and  _30
REMARK   13  A    between atoms: _29  and  _32
REMARK   14  A    between atoms: _32  and  _33
REMARK   15  A    between atoms: _43  and  _45
REMARK   16  A    between atoms: _45  and  _46
REMARK   17  A    between atoms: _45  and  _48
REMARK   18  A    between atoms: _48  and  _49
REMARK   19  A    between atoms: _52  and  _54
REMARK   20  A    between atoms: _54  and  _55
REMARK   21  A    between atoms: _54  and  _57
REMARK   22  A    between atoms: _57  and  _58
REMARK   23  A    between atoms: _61  and  _63
REMARK   24  A    between atoms: _63  and  _64
REMARK   25  A    between atoms: _63  and  _66
REMARK   26  A    between atoms: _66  and  _67
REMARK   27  A    between atoms: _69  and  _71
REMARK   28  A    between atoms: _71  and  _72
REMARK   29  A    between atoms: _71  and  _74
REMARK   30  A    between atoms: _74  and  _75
REMARK   31  A    between atoms: _78  and  _80
REMARK   32  A    between atoms: _80  and  _81
REMARK   33  A    between atoms: _83  and  _85
REMARK   34  A    between atoms: _85  and  _86
REMARK   35  A    between atoms: _85  and  _88
REMARK   36  A    between atoms: _88  and  _89
REMARK   37  A    between atoms: _94  and  _96
REMARK   38  A    between atoms: _96  and  _97
REMARK   39  A    between atoms: _99  and  _101
REMARK   40  A    between atoms: _101  and  _102
REMARK   41  A    between atoms: _101  and  _104
REMARK   42  A    between atoms: _104  and  _105
REMARK   43  A    between atoms: _105  and  _106
REMARK   44  A    between atoms: _108  and  _110
REMARK   45  A    between atoms: _110  and  _111
REMARK   46  A    between atoms: _110  and  _113
REMARK   47  A    between atoms: _113  and  _114
REMARK   48  A    between atoms: _119  and  _120
REMARK   49  A    between atoms: _122  and  _124
REMARK   50  A    between atoms: _124  and  _125
REMARK   51  A    between atoms: _124  and  _127
REMARK   52  A    between atoms: _127  and  _128
REMARK   53  A    between atoms: _131  and  _133
REMARK   54  A    between atoms: _133  and  _134
REMARK   55  A    between atoms: _133  and  _136
REMARK   56  A    between atoms: _136  and  _137
REMARK   57  A    between atoms: _139  and  _141
REMARK   58  A    between atoms: _141  and  _142
REMARK   59  A    between atoms: _141  and  _144
REMARK   60  A    between atoms: _144  and  _145
REMARK   61  A    between atoms: _148  and  _150
REMARK   62  A    between atoms: _150  and  _151
REMARK   63  A    between atoms: _150  and  _153
REMARK   64  A    between atoms: _153  and  _154
REMARK   65  A    between atoms: _154  and  _155
REMARK   66  A    between atoms: _155  and  _156
REMARK   67  A    between atoms: _165  and  _167
REMARK   68  A    between atoms: _167  and  _168
REMARK   69  A    between atoms: _167  and  _170
REMARK   70  A    between atoms: _170  and  _171
REMARK   71  A    between atoms: _177  and  _179
REMARK   72  A    between atoms: _179  and  _180
REMARK   73  A    between atoms: _179  and  _182
REMARK   74  A    between atoms: _182  and  _183
REMARK   75  A    between atoms: _193  and  _195
REMARK   76  A    between atoms: _195  and  _196
REMARK   77  A    between atoms: _195  and  _198
REMARK   78  A    between atoms: _201  and  _203
REMARK   79  A    between atoms: _203  and  _204
REMARK   80  A    between atoms: _203  and  _206
REMARK   81  A    between atoms: _206  and  _207
REMARK   82  A    between atoms: _210  and  _212
REMARK   83  A    between atoms: _212  and  _213
REMARK   84  A    between atoms: _215  and  _217
REMARK   85  A    between atoms: _217  and  _218
REMARK   86  A    between atoms: _217  and  _220
REMARK   87  A    between atoms: _220  and  _221
REMARK   88  A    between atoms: _223  and  _225
REMARK   89  A    between atoms: _225  and  _226
REMARK   90  A    between atoms: _225  and  _228
REMARK   91  A    between atoms: _228  and  _229
REMARK   92  A    between atoms: _239  and  _241
REMARK   93  A    between atoms: _241  and  _242
REMARK   94  A    between atoms: _241  and  _244
REMARK   95  A    between atoms: _244  and  _245
REMARK   96  A    between atoms: _247  and  _249
REMARK   97  A    between atoms: _249  and  _250
REMARK   98  A    between atoms: _249  and  _252
REMARK   99  A    between atoms: _252  and  _253
REMARK  100  A    between atoms: _256  and  _258
REMARK  101  A    between atoms: _258  and  _259
REMARK  102  A    between atoms: _262  and  _264
REMARK  103  A    between atoms: _264  and  _265
REMARK  104  A    between atoms: _264  and  _267
REMARK  105  A    between atoms: _267  and  _268
REMARK  106  A    between atoms: _270  and  _272
REMARK  107  A    between atoms: _272  and  _273
REMARK  108  A    between atoms: _272  and  _275
REMARK  109  A    between atoms: _275  and  _276
REMARK  110  A    between atoms: _276  and  _277
REMARK  111  A    between atoms: _281  and  _282
REMARK  112  A    between atoms: _287  and  _289
REMARK  113  A    between atoms: _289  and  _290
REMARK  114  A    between atoms: _289  and  _292
REMARK  115  A    between atoms: _292  and  _293
REMARK  116  A    between atoms: _295  and  _297
REMARK  117  A    between atoms: _297  and  _298
REMARK  118  A    between atoms: _297  and  _300
REMARK  119  A    between atoms: _300  and  _301
REMARK  120  A    between atoms: _301  and  _302
REMARK  121  A    between atoms: _307  and  _309
REMARK  122  A    between atoms: _309  and  _310
REMARK  123  A    between atoms: _309  and  _312
REMARK  124  A    between atoms: _312  and  _313
REMARK  125  A    between atoms: _316  and  _318
REMARK  126  A    between atoms: _318  and  _319
REMARK  127  A    between atoms: _318  and  _321
REMARK  128  A    between atoms: _321  and  _322
REMARK  129  A    between atoms: _325  and  _327
REMARK  130  A    between atoms: _327  and  _328
REMARK  131  A    between atoms: _327  and  _330
REMARK  132  A    between atoms: _330  and  _331
REMARK  133  A    between atoms: _336  and  _337
REMARK  134  A    between atoms: _339  and  _341
REMARK  135  A    between atoms: _341  and  _342
REMARK  136  A    between atoms: _341  and  _344
REMARK  137  A    between atoms: _344  and  _345
REMARK  138  A    between atoms: _351  and  _353
REMARK  139  A    between atoms: _353  and  _354
REMARK  140  A    between atoms: _353  and  _356
REMARK  141  A    between atoms: _356  and  _357
REMARK  142  A    between atoms: _357  and  _358
REMARK                            x       y       z     vdW  Elec       q    Type
REMARK                         _______ _______ _______ _____ _____    ______ ____
ROOT
ATOM      1  O   HOH     1      -9.524  26.025  -0.010  0.00  0.00    +0.000 OA
ENDROOT
TORSDOF 0
REMARK  Name = ../refined-set-2016/3dri/3dri_pocket.pdb
REMARK  142 active torsions:
REMARK  status: ('A' for Active; 'I' for Inactive)
REMARK    1  A    between atoms: _1  and  _3
REMARK    2  A    between atoms: _3  and  _4
REMARK    3  A    between atoms: _3  and  _6
REMARK    4  A    between atoms: _6  and  _7
REMARK    5  A    between atoms: _10  and  _12
REMARK    6  A    between atoms: _12  and  _13
REMARK    7  A    between atoms: _12  and  _15
REMARK    8  A    between atoms: _15  and  _16
REMARK    9  A    between atoms: _16  and  _17
REMARK   10  A    between atoms: _17  and  _18
REMARK   11  A    between atoms: _27  and  _29
REMARK   12  A    between atoms: _29  and  _30
REMARK   13  A    between atoms: _29  and  _32
REMARK   14  A    between atoms: _32  and  _33
REMARK   15  A    between atoms: _43  and  _45
REMARK   16  A    between atoms: _45  and  _46
REMARK   17  A    between atoms: _45  and  _48
REMARK   18  A    between atoms: _48  and  _49
REMARK   19  A    between atoms: _52  and  _54
REMARK   20  A    between atoms: _54  and  _55
REMARK   21  A    between atoms: _54  and  _57
REMARK   22  A    between atoms: _57  and  _58
REMARK   23  A    between atoms: _61  and  _63
REMARK   24  A    between atoms: _63  and  _64
REMARK   25  A    between atoms: _63  and  _66
REMARK   26  A    between atoms: _66  and  _67
REMARK   27  A    between atoms: _69  and  _71
REMARK   28  A    between atoms: _71  and  _72
REMARK   29  A    between atoms: _71  and  _74
REMARK   30  A    between atoms: _74  and  _75
REMARK   31  A    between atoms: _78  and  _80
REMARK   32  A    between atoms: _80  and  _81
REMARK   33  A    between atoms: _83  and  _85
REMARK   34  A    between atoms: _85  and  _86
REMARK   35  A    between atoms: _85  and  _88
REMARK   36  A    between atoms: _88  and  _89
REMARK   37  A    between atoms: _94  and  _96
REMARK   38  A    between atoms: _96  and  _97
REMARK   39  A    between atoms: _99  and  _101
REMARK   40  A    between atoms: _101  and  _102
REMARK   41  A    between atoms: _101  and  _104
REMARK   42  A    between atoms: _104  and  _105
REMARK   43  A    between atoms: _105  and  _106
REMARK   44  A    between atoms: _108  and  _110
REMARK   45  A    between atoms: _110  and  _111
REMARK   46  A    between atoms: _110  and  _113
REMARK   47  A    between atoms: _113  and  _114
REMARK   48  A    between atoms: _119  and  _120
REMARK   49  A    between atoms: _122  and  _124
REMARK   50  A    between atoms: _124  and  _125
REMARK   51  A    between atoms: _124  and  _127
REMARK   52  A    between atoms: _127  and  _128
REMARK   53  A    between atoms: _131  and  _133
REMARK   54  A    between atoms: _133  and  _134
REMARK   55  A    between atoms: _133  and  _136
REMARK   56  A    between atoms: _136  and  _137
REMARK   57  A    between atoms: _139  and  _141
REMARK   58  A    between atoms: _141  and  _142
REMARK   59  A    between atoms: _141  and  _144
REMARK   60  A    between atoms: _144  and  _145
REMARK   61  A    between atoms: _148  and  _150
REMARK   62  A    between atoms: _150  and  _151
REMARK   63  A    between atoms: _150  and  _153
REMARK   64  A    between atoms: _153  and  _154
REMARK   65  A    between atoms: _154  and  _155
REMARK   66  A    between atoms: _155  and  _156
REMARK   67  A    between atoms: _165  and  _167
REMARK   68  A    between atoms: _167  and  _168
REMARK   69  A    between atoms: _167  and  _170
REMARK   70  A    between atoms: _170  and  _171
REMARK   71  A    between atoms: _177  and  _179
REMARK   72  A    between atoms: _179  and  _180
REMARK   73  A    between atoms: _179  and  _182
REMARK   74  A    between atoms: _182  and  _183
REMARK   75  A    between atoms: _193  and  _195
REMARK   76  A    between atoms: _195  and  _196
REMARK   77  A    between atoms: _195  and  _198
REMARK   78  A    between atoms: _201  and  _203
REMARK   79  A    between atoms: _203  and  _204
REMARK   80  A    between atoms: _203  and  _206
REMARK   81  A    between atoms: _206  and  _207
REMARK   82  A    between atoms: _210  and  _212
REMARK   83  A    between atoms: _212  and  _213
REMARK   84  A    between atoms: _215  and  _217
REMARK   85  A    between atoms: _217  and  _218
REMARK   86  A    between atoms: _217  and  _220
REMARK   87  A    between atoms: _220  and  _221
REMARK   88  A    between atoms: _223  and  _225
REMARK   89  A    between atoms: _225  and  _226
REMARK   90  A    between atoms: _225  and  _228
REMARK   91  A    between atoms: _228  and  _229
REMARK   92  A    between atoms: _239  and  _241
REMARK   93  A    between atoms: _241  and  _242
REMARK   94  A    between atoms: _241  and  _244
REMARK   95  A    between atoms: _244  and  _245
REMARK   96  A    between atoms: _247  and  _249
REMARK   97  A    between atoms: _249  and  _250
REMARK   98  A    between atoms: _249  and  _252
REMARK   99  A    between atoms: _252  and  _253
REMARK  100  A    between atoms: _256  and  _258
REMARK  101  A    between atoms: _258  and  _259
REMARK  102  A    between atoms: _262  and  _264
REMARK  103  A    between atoms: _264  and  _265
REMARK  104  A    between atoms: _264  and  _267
REMARK  105  A    between atoms: _267  and  _268
REMARK  106  A    between atoms: _270  and  _272
REMARK  107  A    between atoms: _272  and  _273
REMARK  108  A    between atoms: _272  and  _275
REMARK  109  A    between atoms: _275  and  _276
REMARK  110  A    between atoms: _276  and  _277
REMARK  111  A    between atoms: _281  and  _282
REMARK  112  A    between atoms: _287  and  _289
REMARK  113  A    between atoms: _289  and  _290
REMARK  114  A    between atoms: _289  and  _292
REMARK  115  A    between atoms: _292  and  _293
REMARK  116  A    between atoms: _295  and  _297
REMARK  117  A    between atoms: _297  and  _298
REMARK  118  A    between atoms: _297  and  _300
REMARK  119  A    between atoms: _300  and  _301
REMARK  120  A    between atoms: _301  and  _302
REMARK  121  A    between atoms: _307  and  _309
REMARK  122  A    between atoms: _309  and  _310
REMARK  123  A    between atoms: _309  and  _312
REMARK  124  A    between atoms: _312  and  _313
REMARK  125  A    between atoms: _316  and  _318
REMARK  126  A    between atoms: _318  and  _319
REMARK  127  A    between atoms: _318  and  _321
REMARK  128  A    between atoms: _321  and  _322
REMARK  129  A    between atoms: _325  and  _327
REMARK  130  A    between atoms: _327  and  _328
REMARK  131  A    between atoms: _327  and  _330
REMARK  132  A    between atoms: _330  and  _331
REMARK  133  A    between atoms: _336  and  _337
REMARK  134  A    between atoms: _339  and  _341
REMARK  135  A    between atoms: _341  and  _342
REMARK  136  A    between atoms: _341  and  _344
REMARK  137  A    between atoms: _344  and  _345
REMARK  138  A    between atoms: _351  and  _353
REMARK  139  A    between atoms: _353  and  _354
REMARK  140  A    between atoms: _353  and  _356
REMARK  141  A    between atoms: _356  and  _357
REMARK  142  A    between atoms: _357  and  _358
REMARK                            x       y       z     vdW  Elec       q    Type
REMARK                         _______ _______ _______ _____ _____    ______ ____
ROOT
ATOM      1  O   HOH     1      -1.822  14.604  -2.379  0.00  0.00    +0.000 OA
ENDROOT
TORSDOF 0
REMARK  Name = ../refined-set-2016/3dri/3dri_pocket.pdb
REMARK  142 active torsions:
REMARK  status: ('A' for Active; 'I' for Inactive)
REMARK    1  A    between atoms: _1  and  _3
REMARK    2  A    between atoms: _3  and  _4
REMARK    3  A    between atoms: _3  and  _6
REMARK    4  A    between atoms: _6  and  _7
REMARK    5  A    between atoms: _10  and  _12
REMARK    6  A    between atoms: _12  and  _13
REMARK    7  A    between atoms: _12  and  _15
REMARK    8  A    between atoms: _15  and  _16
REMARK    9  A    between atoms: _16  and  _17
REMARK   10  A    between atoms: _17  and  _18
REMARK   11  A    between atoms: _27  and  _29
REMARK   12  A    between atoms: _29  and  _30
REMARK   13  A    between atoms: _29  and  _32
REMARK   14  A    between atoms: _32  and  _33
REMARK   15  A    between atoms: _43  and  _45
REMARK   16  A    between atoms: _45  and  _46
REMARK   17  A    between atoms: _45  and  _48
REMARK   18  A    between atoms: _48  and  _49
REMARK   19  A    between atoms: _52  and  _54
REMARK   20  A    between atoms: _54  and  _55
REMARK   21  A    between atoms: _54  and  _57
REMARK   22  A    between atoms: _57  and  _58
REMARK   23  A    between atoms: _61  and  _63
REMARK   24  A    between atoms: _63  and  _64
REMARK   25  A    between atoms: _63  and  _66
REMARK   26  A    between atoms: _66  and  _67
REMARK   27  A    between atoms: _69  and  _71
REMARK   28  A    between atoms: _71  and  _72
REMARK   29  A    between atoms: _71  and  _74
REMARK   30  A    between atoms: _74  and  _75
REMARK   31  A    between atoms: _78  and  _80
REMARK   32  A    between atoms: _80  and  _81
REMARK   33  A    between atoms: _83  and  _85
REMARK   34  A    between atoms: _85  and  _86
REMARK   35  A    between atoms: _85  and  _88
REMARK   36  A    between atoms: _88  and  _89
REMARK   37  A    between atoms: _94  and  _96
REMARK   38  A    between atoms: _96  and  _97
REMARK   39  A    between atoms: _99  and  _101
REMARK   40  A    between atoms: _101  and  _102
REMARK   41  A    between atoms: _101  and  _104
REMARK   42  A    between atoms: _104  and  _105
REMARK   43  A    between atoms: _105  and  _106
REMARK   44  A    between atoms: _108  and  _110
REMARK   45  A    between atoms: _110  and  _111
REMARK   46  A    between atoms: _110  and  _113
REMARK   47  A    between atoms: _113  and  _114
REMARK   48  A    between atoms: _119  and  _120
REMARK   49  A    between atoms: _122  and  _124
REMARK   50  A    between atoms: _124  and  _125
REMARK   51  A    between atoms: _124  and  _127
REMARK   52  A    between atoms: _127  and  _128
REMARK   53  A    between atoms: _131  and  _133
REMARK   54  A    between atoms: _133  and  _134
REMARK   55  A    between atoms: _133  and  _136
REMARK   56  A    between atoms: _136  and  _137
REMARK   57  A    between atoms: _139  and  _141
REMARK   58  A    between atoms: _141  and  _142
REMARK   59  A    between atoms: _141  and  _144
REMARK   60  A    between atoms: _144  and  _145
REMARK   61  A    between atoms: _148  and  _150
REMARK   62  A    between atoms: _150  and  _151
REMARK   63  A    between atoms: _150  and  _153
REMARK   64  A    between atoms: _153  and  _154
REMARK   65  A    between atoms: _154  and  _155
REMARK   66  A    between atoms: _155  and  _156
REMARK   67  A    between atoms: _165  and  _167
REMARK   68  A    between atoms: _167  and  _168
REMARK   69  A    between atoms: _167  and  _170
REMARK   70  A    between atoms: _170  and  _171
REMARK   71  A    between atoms: _177  and  _179
REMARK   72  A    between atoms: _179  and  _180
REMARK   73  A    between atoms: _179  and  _182
REMARK   74  A    between atoms: _182  and  _183
REMARK   75  A    between atoms: _193  and  _195
REMARK   76  A    between atoms: _195  and  _196
REMARK   77  A    between atoms: _195  and  _198
REMARK   78  A    between atoms: _201  and  _203
REMARK   79  A    between atoms: _203  and  _204
REMARK   80  A    between atoms: _203  and  _206
REMARK   81  A    between atoms: _206  and  _207
REMARK   82  A    between atoms: _210  and  _212
REMARK   83  A    between atoms: _212  and  _213
REMARK   84  A    between atoms: _215  and  _217
REMARK   85  A    between atoms: _217  and  _218
REMARK   86  A    between atoms: _217  and  _220
REMARK   87  A    between atoms: _220  and  _221
REMARK   88  A    between atoms: _223  and  _225
REMARK   89  A    between atoms: _225  and  _226
REMARK   90  A    between atoms: _225  and  _228
REMARK   91  A    between atoms: _228  and  _229
REMARK   92  A    between atoms: _239  and  _241
REMARK   93  A    between atoms: _241  and  _242
REMARK   94  A    between atoms: _241  and  _244
REMARK   95  A    between atoms: _244  and  _245
REMARK   96  A    between atoms: _247  and  _249
REMARK   97  A    between atoms: _249  and  _250
REMARK   98  A    between atoms: _249  and  _252
REMARK   99  A    between atoms: _252  and  _253
REMARK  100  A    between atoms: _256  and  _258
REMARK  101  A    between atoms: _258  and  _259
REMARK  102  A    between atoms: _262  and  _264
REMARK  103  A    between atoms: _264  and  _265
REMARK  104  A    between atoms: _264  and  _267
REMARK  105  A    between atoms: _267  and  _268
REMARK  106  A    between atoms: _270  and  _272
REMARK  107  A    between atoms: _272  and  _273
REMARK  108  A    between atoms: _272  and  _275
REMARK  109  A    between atoms: _275  and  _276
REMARK  110  A    between atoms: _276  and  _277
REMARK  111  A    between atoms: _281  and  _282
REMARK  112  A    between atoms: _287  and  _289
REMARK  113  A    between atoms: _289  and  _290
REMARK  114  A    between atoms: _289  and  _292
REMARK  115  A    between atoms: _292  and  _293
REMARK  116  A    between atoms: _295  and  _297
REMARK  117  A    between atoms: _297  and  _298
REMARK  118  A    between atoms: _297  and  _300
REMARK  119  A    between atoms: _300  and  _301
REMARK  120  A    between atoms: _301  and  _302
REMARK  121  A    between atoms: _307  and  _309
REMARK  122  A    between atoms: _309  and  _310
REMARK  123  A    between atoms: _309  and  _312
REMARK  124  A    between atoms: _312  and  _313
REMARK  125  A    between atoms: _316  and  _318
REMARK  126  A    between atoms: _318  and  _319
REMARK  127  A    between atoms: _318  and  _321
REMARK  128  A    between atoms: _321  and  _322
REMARK  129  A    between atoms: _325  and  _327
REMARK  130  A    between atoms: _327  and  _328
REMARK  131  A    between atoms: _327  and  _330
REMARK  132  A    between atoms: _330  and  _331
REMARK  133  A    between atoms: _336  and  _337
REMARK  134  A    between atoms: _339  and  _341
REMARK  135  A    between atoms: _341  and  _342
REMARK  136  A    between atoms: _341  and  _344
REMARK  137  A    between atoms: _344  and  _345
REMARK  138  A    between atoms: _351  and  _353
REMARK  139  A    between atoms: _353  and  _354
REMARK  140  A    between atoms: _353  and  _356
REMARK  141  A    between atoms: _356  and  _357
REMARK  142  A    between atoms: _357  and  _358
REMARK                            x       y       z     vdW  Elec       q    Type
REMARK                         _______ _______ _______ _____ _____    ______ ____
ROOT
ATOM      1  O   HOH     1      -0.011  16.127   3.050  0.00  0.00    +0.000 OA
ENDROOT
TORSDOF 0
REMARK  Name = ../refined-set-2016/3dri/3dri_pocket.pdb
REMARK  142 active torsions:
REMARK  status: ('A' for Active; 'I' for Inactive)
REMARK    1  A    between atoms: _1  and  _3
REMARK    2  A    between atoms: _3  and  _4
REMARK    3  A    between atoms: _3  and  _6
REMARK    4  A    between atoms: _6  and  _7
REMARK    5  A    between atoms: _10  and  _12
REMARK    6  A    between atoms: _12  and  _13
REMARK    7  A    between atoms: _12  and  _15
REMARK    8  A    between atoms: _15  and  _16
REMARK    9  A    between atoms: _16  and  _17
REMARK   10  A    between atoms: _17  and  _18
REMARK   11  A    between atoms: _27  and  _29
REMARK   12  A    between atoms: _29  and  _30
REMARK   13  A    between atoms: _29  and  _32
REMARK   14  A    between atoms: _32  and  _33
REMARK   15  A    between atoms: _43  and  _45
REMARK   16  A    between atoms: _45  and  _46
REMARK   17  A    between atoms: _45  and  _48
REMARK   18  A    between atoms: _48  and  _49
REMARK   19  A    between atoms: _52  and  _54
REMARK   20  A    between atoms: _54  and  _55
REMARK   21  A    between atoms: _54  and  _57
REMARK   22  A    between atoms: _57  and  _58
REMARK   23  A    between atoms: _61  and  _63
REMARK   24  A    between atoms: _63  and  _64
REMARK   25  A    between atoms: _63  and  _66
REMARK   26  A    between atoms: _66  and  _67
REMARK   27  A    between atoms: _69  and  _71
REMARK   28  A    between atoms: _71  and  _72
REMARK   29  A    between atoms: _71  and  _74
REMARK   30  A    between atoms: _74  and  _75
REMARK   31  A    between atoms: _78  and  _80
REMARK   32  A    between atoms: _80  and  _81
REMARK   33  A    between atoms: _83  and  _85
REMARK   34  A    between atoms: _85  and  _86
REMARK   35  A    between atoms: _85  and  _88
REMARK   36  A    between atoms: _88  and  _89
REMARK   37  A    between atoms: _94  and  _96
REMARK   38  A    between atoms: _96  and  _97
REMARK   39  A    between atoms: _99  and  _101
REMARK   40  A    between atoms: _101  and  _102
REMARK   41  A    between atoms: _101  and  _104
REMARK   42  A    between atoms: _104  and  _105
REMARK   43  A    between atoms: _105  and  _106
REMARK   44  A    between atoms: _108  and  _110
REMARK   45  A    between atoms: _110  and  _111
REMARK   46  A    between atoms: _110  and  _113
REMARK   47  A    between atoms: _113  and  _114
REMARK   48  A    between atoms: _119  and  _120
REMARK   49  A    between atoms: _122  and  _124
REMARK   50  A    between atoms: _124  and  _125
REMARK   51  A    between atoms: _124  and  _127
REMARK   52  A    between atoms: _127  and  _128
REMARK   53  A    between atoms: _131  and  _133
REMARK   54  A    between atoms: _133  and  _134
REMARK   55  A    between atoms: _133  and  _136
REMARK   56  A    between atoms: _136  and  _137
REMARK   57  A    between atoms: _139  and  _141
REMARK   58  A    between atoms: _141  and  _142
REMARK   59  A    between atoms: _141  and  _144
REMARK   60  A    between atoms: _144  and  _145
REMARK   61  A    between atoms: _148  and  _150
REMARK   62  A    between atoms: _150  and  _151
REMARK   63  A    between atoms: _150  and  _153
REMARK   64  A    between atoms: _153  and  _154
REMARK   65  A    between atoms: _154  and  _155
REMARK   66  A    between atoms: _155  and  _156
REMARK   67  A    between atoms: _165  and  _167
REMARK   68  A    between atoms: _167  and  _168
REMARK   69  A    between atoms: _167  and  _170
REMARK   70  A    between atoms: _170  and  _171
REMARK   71  A    between atoms: _177  and  _179
REMARK   72  A    between atoms: _179  and  _180
REMARK   73  A    between atoms: _179  and  _182
REMARK   74  A    between atoms: _182  and  _183
REMARK   75  A    between atoms: _193  and  _195
REMARK   76  A    between atoms: _195  and  _196
REMARK   77  A    between atoms: _195  and  _198
REMARK   78  A    between atoms: _201  and  _203
REMARK   79  A    between atoms: _203  and  _204
REMARK   80  A    between atoms: _203  and  _206
REMARK   81  A    between atoms: _206  and  _207
REMARK   82  A    between atoms: _210  and  _212
REMARK   83  A    between atoms: _212  and  _213
REMARK   84  A    between atoms: _215  and  _217
REMARK   85  A    between atoms: _217  and  _218
REMARK   86  A    between atoms: _217  and  _220
REMARK   87  A    between atoms: _220  and  _221
REMARK   88  A    between atoms: _223  and  _225
REMARK   89  A    between atoms: _225  and  _226
REMARK   90  A    between atoms: _225  and  _228
REMARK   91  A    between atoms: _228  and  _229
REMARK   92  A    between atoms: _239  and  _241
REMARK   93  A    between atoms: _241  and  _242
REMARK   94  A    between atoms: _241  and  _244
REMARK   95  A    between atoms: _244  and  _245
REMARK   96  A    between atoms: _247  and  _249
REMARK   97  A    between atoms: _249  and  _250
REMARK   98  A    between atoms: _249  and  _252
REMARK   99  A    between atoms: _252  and  _253
REMARK  100  A    between atoms: _256  and  _258
REMARK  101  A    between atoms: _258  and  _259
REMARK  102  A    between atoms: _262  and  _264
REMARK  103  A    between atoms: _264  and  _265
REMARK  104  A    between atoms: _264  and  _267
REMARK  105  A    between atoms: _267  and  _268
REMARK  106  A    between atoms: _270  and  _272
REMARK  107  A    between atoms: _272  and  _273
REMARK  108  A    between atoms: _272  and  _275
REMARK  109  A    between atoms: _275  and  _276
REMARK  110  A    between atoms: _276  and  _277
REMARK  111  A    between atoms: _281  and  _282
REMARK  112  A    between atoms: _287  and  _289
REMARK  113  A    between atoms: _289  and  _290
REMARK  114  A    between atoms: _289  and  _292
REMARK  115  A    between atoms: _292  and  _293
REMARK  116  A    between atoms: _295  and  _297
REMARK  117  A    between atoms: _297  and  _298
REMARK  118  A    between atoms: _297  and  _300
REMARK  119  A    between atoms: _300  and  _301
REMARK  120  A    between atoms: _301  and  _302
REMARK  121  A    between atoms: _307  and  _309
REMARK  122  A    between atoms: _309  and  _310
REMARK  123  A    between atoms: _309  and  _312
REMARK  124  A    between atoms: _312  and  _313
REMARK  125  A    between atoms: _316  and  _318
REMARK  126  A    between atoms: _318  and  _319
REMARK  127  A    between atoms: _318  and  _321
REMARK  128  A    between atoms: _321  and  _322
REMARK  129  A    between atoms: _325  and  _327
REMARK  130  A    between atoms: _327  and  _328
REMARK  131  A    between atoms: _327  and  _330
REMARK  132  A    between atoms: _330  and  _331
REMARK  133  A    between atoms: _336  and  _337
REMARK  134  A    between atoms: _339  and  _341
REMARK  135  A    between atoms: _341  and  _342
REMARK  136  A    between atoms: _341  and  _344
REMARK  137  A    between atoms: _344  and  _345
REMARK  138  A    between atoms: _351  and  _353
REMARK  139  A    between atoms: _353  and  _354
REMARK  140  A    between atoms: _353  and  _356
REMARK  141  A    between atoms: _356  and  _357
REMARK  142  A    between atoms: _357  and  _358
REMARK                            x       y       z     vdW  Elec       q    Type
REMARK                         _______ _______ _______ _____ _____    ______ ____
ROOT
ATOM      1  O   HOH     1      -7.666  14.287  -2.417  0.00  0.00    +0.000 OA
ENDROOT
TORSDOF 0
REMARK  Name = ../refined-set-2016/3dri/3dri_pocket.pdb
REMARK  142 active torsions:
REMARK  status: ('A' for Active; 'I' for Inactive)
REMARK    1  A    between atoms: _1  and  _3
REMARK    2  A    between atoms: _3  and  _4
REMARK    3  A    between atoms: _3  and  _6
REMARK    4  A    between atoms: _6  and  _7
REMARK    5  A    between atoms: _10  and  _12
REMARK    6  A    between atoms: _12  and  _13
REMARK    7  A    between atoms: _12  and  _15
REMARK    8  A    between atoms: _15  and  _16
REMARK    9  A    between atoms: _16  and  _17
REMARK   10  A    between atoms: _17  and  _18
REMARK   11  A    between atoms: _27  and  _29
REMARK   12  A    between atoms: _29  and  _30
REMARK   13  A    between atoms: _29  and  _32
REMARK   14  A    between atoms: _32  and  _33
REMARK   15  A    between atoms: _43  and  _45
REMARK   16  A    between atoms: _45  and  _46
REMARK   17  A    between atoms: _45  and  _48
REMARK   18  A    between atoms: _48  and  _49
REMARK   19  A    between atoms: _52  and  _54
REMARK   20  A    between atoms: _54  and  _55
REMARK   21  A    between atoms: _54  and  _57
REMARK   22  A    between atoms: _57  and  _58
REMARK   23  A    between atoms: _61  and  _63
REMARK   24  A    between atoms: _63  and  _64
REMARK   25  A    between atoms: _63  and  _66
REMARK   26  A    between atoms: _66  and  _67
REMARK   27  A    between atoms: _69  and  _71
REMARK   28  A    between atoms: _71  and  _72
REMARK   29  A    between atoms: _71  and  _74
REMARK   30  A    between atoms: _74  and  _75
REMARK   31  A    between atoms: _78  and  _80
REMARK   32  A    between atoms: _80  and  _81
REMARK   33  A    between atoms: _83  and  _85
REMARK   34  A    between atoms: _85  and  _86
REMARK   35  A    between atoms: _85  and  _88
REMARK   36  A    between atoms: _88  and  _89
REMARK   37  A    between atoms: _94  and  _96
REMARK   38  A    between atoms: _96  and  _97
REMARK   39  A    between atoms: _99  and  _101
REMARK   40  A    between atoms: _101  and  _102
REMARK   41  A    between atoms: _101  and  _104
REMARK   42  A    between atoms: _104  and  _105
REMARK   43  A    between atoms: _105  and  _106
REMARK   44  A    between atoms: _108  and  _110
REMARK   45  A    between atoms: _110  and  _111
REMARK   46  A    between atoms: _110  and  _113
REMARK   47  A    between atoms: _113  and  _114
REMARK   48  A    between atoms: _119  and  _120
REMARK   49  A    between atoms: _122  and  _124
REMARK   50  A    between atoms: _124  and  _125
REMARK   51  A    between atoms: _124  and  _127
REMARK   52  A    between atoms: _127  and  _128
REMARK   53  A    between atoms: _131  and  _133
REMARK   54  A    between atoms: _133  and  _134
REMARK   55  A    between atoms: _133  and  _136
REMARK   56  A    between atoms: _136  and  _137
REMARK   57  A    between atoms: _139  and  _141
REMARK   58  A    between atoms: _141  and  _142
REMARK   59  A    between atoms: _141  and  _144
REMARK   60  A    between atoms: _144  and  _145
REMARK   61  A    between atoms: _148  and  _150
REMARK   62  A    between atoms: _150  and  _151
REMARK   63  A    between atoms: _150  and  _153
REMARK   64  A    between atoms: _153  and  _154
REMARK   65  A    between atoms: _154  and  _155
REMARK   66  A    between atoms: _155  and  _156
REMARK   67  A    between atoms: _165  and  _167
REMARK   68  A    between atoms: _167  and  _168
REMARK   69  A    between atoms: _167  and  _170
REMARK   70  A    between atoms: _170  and  _171
REMARK   71  A    between atoms: _177  and  _179
REMARK   72  A    between atoms: _179  and  _180
REMARK   73  A    between atoms: _179  and  _182
REMARK   74  A    between atoms: _182  and  _183
REMARK   75  A    between atoms: _193  and  _195
REMARK   76  A    between atoms: _195  and  _196
REMARK   77  A    between atoms: _195  and  _198
REMARK   78  A    between atoms: _201  and  _203
REMARK   79  A    between atoms: _203  and  _204
REMARK   80  A    between atoms: _203  and  _206
REMARK   81  A    between atoms: _206  and  _207
REMARK   82  A    between atoms: _210  and  _212
REMARK   83  A    between atoms: _212  and  _213
REMARK   84  A    between atoms: _215  and  _217
REMARK   85  A    between atoms: _217  and  _218
REMARK   86  A    between atoms: _217  and  _220
REMARK   87  A    between atoms: _220  and  _221
REMARK   88  A    between atoms: _223  and  _225
REMARK   89  A    between atoms: _225  and  _226
REMARK   90  A    between atoms: _225  and  _228
REMARK   91  A    between atoms: _228  and  _229
REMARK   92  A    between atoms: _239  and  _241
REMARK   93  A    between atoms: _241  and  _242
REMARK   94  A    between atoms: _241  and  _244
REMARK   95  A    between atoms: _244  and  _245
REMARK   96  A    between atoms: _247  and  _249
REMARK   97  A    between atoms: _249  and  _250
REMARK   98  A    between atoms: _249  and  _252
REMARK   99  A    between atoms: _252  and  _253
REMARK  100  A    between atoms: _256  and  _258
REMARK  101  A    between atoms: _258  and  _259
REMARK  102  A    between atoms: _262  and  _264
REMARK  103  A    between atoms: _264  and  _265
REMARK  104  A    between atoms: _264  and  _267
REMARK  105  A    between atoms: _267  and  _268
REMARK  106  A    between atoms: _270  and  _272
REMARK  107  A    between atoms: _272  and  _273
REMARK  108  A    between atoms: _272  and  _275
REMARK  109  A    between atoms: _275  and  _276
REMARK  110  A    between atoms: _276  and  _277
REMARK  111  A    between atoms: _281  and  _282
REMARK  112  A    between atoms: _287  and  _289
REMARK  113  A    between atoms: _289  and  _290
REMARK  114  A    between atoms: _289  and  _292
REMARK  115  A    between atoms: _292  and  _293
REMARK  116  A    between atoms: _295  and  _297
REMARK  117  A    between atoms: _297  and  _298
REMARK  118  A    between atoms: _297  and  _300
REMARK  119  A    between atoms: _300  and  _301
REMARK  120  A    between atoms: _301  and  _302
REMARK  121  A    between atoms: _307  and  _309
REMARK  122  A    between atoms: _309  and  _310
REMARK  123  A    between atoms: _309  and  _312
REMARK  124  A    between atoms: _312  and  _313
REMARK  125  A    between atoms: _316  and  _318
REMARK  126  A    between atoms: _318  and  _319
REMARK  127  A    between atoms: _318  and  _321
REMARK  128  A    between atoms: _321  and  _322
REMARK  129  A    between atoms: _325  and  _327
REMARK  130  A    between atoms: _327  and  _328
REMARK  131  A    between atoms: _327  and  _330
REMARK  132  A    between atoms: _330  and  _331
REMARK  133  A    between atoms: _336  and  _337
REMARK  134  A    between atoms: _339  and  _341
REMARK  135  A    between atoms: _341  and  _342
REMARK  136  A    between atoms: _341  and  _344
REMARK  137  A    between atoms: _344  and  _345
REMARK  138  A    between atoms: _351  and  _353
REMARK  139  A    between atoms: _353  and  _354
REMARK  140  A    between atoms: _353  and  _356
REMARK  141  A    between atoms: _356  and  _357
REMARK  142  A    between atoms: _357  and  _358
REMARK                            x       y       z     vdW  Elec       q    Type
REMARK                         _______ _______ _______ _____ _____    ______ ____
ROOT
ATOM      1  O   HOH     1      -6.781  26.845  -2.919  0.00  0.00    +0.000 OA
ENDROOT
TORSDOF 0
REMARK  Name = ../refined-set-2016/3dri/3dri_pocket.pdb
REMARK  142 active torsions:
REMARK  status: ('A' for Active; 'I' for Inactive)
REMARK    1  A    between atoms: _1  and  _3
REMARK    2  A    between atoms: _3  and  _4
REMARK    3  A    between atoms: _3  and  _6
REMARK    4  A    between atoms: _6  and  _7
REMARK    5  A    between atoms: _10  and  _12
REMARK    6  A    between atoms: _12  and  _13
REMARK    7  A    between atoms: _12  and  _15
REMARK    8  A    between atoms: _15  and  _16
REMARK    9  A    between atoms: _16  and  _17
REMARK   10  A    between atoms: _17  and  _18
REMARK   11  A    between atoms: _27  and  _29
REMARK   12  A    between atoms: _29  and  _30
REMARK   13  A    between atoms: _29  and  _32
REMARK   14  A    between atoms: _32  and  _33
REMARK   15  A    between atoms: _43  and  _45
REMARK   16  A    between atoms: _45  and  _46
REMARK   17  A    between atoms: _45  and  _48
REMARK   18  A    between atoms: _48  and  _49
REMARK   19  A    between atoms: _52  and  _54
REMARK   20  A    between atoms: _54  and  _55
REMARK   21  A    between atoms: _54  and  _57
REMARK   22  A    between atoms: _57  and  _58
REMARK   23  A    between atoms: _61  and  _63
REMARK   24  A    between atoms: _63  and  _64
REMARK   25  A    between atoms: _63  and  _66
REMARK   26  A    between atoms: _66  and  _67
REMARK   27  A    between atoms: _69  and  _71
REMARK   28  A    between atoms: _71  and  _72
REMARK   29  A    between atoms: _71  and  _74
REMARK   30  A    between atoms: _74  and  _75
REMARK   31  A    between atoms: _78  and  _80
REMARK   32  A    between atoms: _80  and  _81
REMARK   33  A    between atoms: _83  and  _85
REMARK   34  A    between atoms: _85  and  _86
REMARK   35  A    between atoms: _85  and  _88
REMARK   36  A    between atoms: _88  and  _89
REMARK   37  A    between atoms: _94  and  _96
REMARK   38  A    between atoms: _96  and  _97
REMARK   39  A    between atoms: _99  and  _101
REMARK   40  A    between atoms: _101  and  _102
REMARK   41  A    between atoms: _101  and  _104
REMARK   42  A    between atoms: _104  and  _105
REMARK   43  A    between atoms: _105  and  _106
REMARK   44  A    between atoms: _108  and  _110
REMARK   45  A    between atoms: _110  and  _111
REMARK   46  A    between atoms: _110  and  _113
REMARK   47  A    between atoms: _113  and  _114
REMARK   48  A    between atoms: _119  and  _120
REMARK   49  A    between atoms: _122  and  _124
REMARK   50  A    between atoms: _124  and  _125
REMARK   51  A    between atoms: _124  and  _127
REMARK   52  A    between atoms: _127  and  _128
REMARK   53  A    between atoms: _131  and  _133
REMARK   54  A    between atoms: _133  and  _134
REMARK   55  A    between atoms: _133  and  _136
REMARK   56  A    between atoms: _136  and  _137
REMARK   57  A    between atoms: _139  and  _141
REMARK   58  A    between atoms: _141  and  _142
REMARK   59  A    between atoms: _141  and  _144
REMARK   60  A    between atoms: _144  and  _145
REMARK   61  A    between atoms: _148  and  _150
REMARK   62  A    between atoms: _150  and  _151
REMARK   63  A    between atoms: _150  and  _153
REMARK   64  A    between atoms: _153  and  _154
REMARK   65  A    between atoms: _154  and  _155
REMARK   66  A    between atoms: _155  and  _156
REMARK   67  A    between atoms: _165  and  _167
REMARK   68  A    between atoms: _167  and  _168
REMARK   69  A    between atoms: _167  and  _170
REMARK   70  A    between atoms: _170  and  _171
REMARK   71  A    between atoms: _177  and  _179
REMARK   72  A    between atoms: _179  and  _180
REMARK   73  A    between atoms: _179  and  _182
REMARK   74  A    between atoms: _182  and  _183
REMARK   75  A    between atoms: _193  and  _195
REMARK   76  A    between atoms: _195  and  _196
REMARK   77  A    between atoms: _195  and  _198
REMARK   78  A    between atoms: _201  and  _203
REMARK   79  A    between atoms: _203  and  _204
REMARK   80  A    between atoms: _203  and  _206
REMARK   81  A    between atoms: _206  and  _207
REMARK   82  A    between atoms: _210  and  _212
REMARK   83  A    between atoms: _212  and  _213
REMARK   84  A    between atoms: _215  and  _217
REMARK   85  A    between atoms: _217  and  _218
REMARK   86  A    between atoms: _217  and  _220
REMARK   87  A    between atoms: _220  and  _221
REMARK   88  A    between atoms: _223  and  _225
REMARK   89  A    between atoms: _225  and  _226
REMARK   90  A    between atoms: _225  and  _228
REMARK   91  A    between atoms: _228  and  _229
REMARK   92  A    between atoms: _239  and  _241
REMARK   93  A    between atoms: _241  and  _242
REMARK   94  A    between atoms: _241  and  _244
REMARK   95  A    between atoms: _244  and  _245
REMARK   96  A    between atoms: _247  and  _249
REMARK   97  A    between atoms: _249  and  _250
REMARK   98  A    between atoms: _249  and  _252
REMARK   99  A    between atoms: _252  and  _253
REMARK  100  A    between atoms: _256  and  _258
REMARK  101  A    between atoms: _258  and  _259
REMARK  102  A    between atoms: _262  and  _264
REMARK  103  A    between atoms: _264  and  _265
REMARK  104  A    between atoms: _264  and  _267
REMARK  105  A    between atoms: _267  and  _268
REMARK  106  A    between atoms: _270  and  _272
REMARK  107  A    between atoms: _272  and  _273
REMARK  108  A    between atoms: _272  and  _275
REMARK  109  A    between atoms: _275  and  _276
REMARK  110  A    between atoms: _276  and  _277
REMARK  111  A    between atoms: _281  and  _282
REMARK  112  A    between atoms: _287  and  _289
REMARK  113  A    between atoms: _289  and  _290
REMARK  114  A    between atoms: _289  and  _292
REMARK  115  A    between atoms: _292  and  _293
REMARK  116  A    between atoms: _295  and  _297
REMARK  117  A    between atoms: _297  and  _298
REMARK  118  A    between atoms: _297  and  _300
REMARK  119  A    between atoms: _300  and  _301
REMARK  120  A    between atoms: _301  and  _302
REMARK  121  A    between atoms: _307  and  _309
REMARK  122  A    between atoms: _309  and  _310
REMARK  123  A    between atoms: _309  and  _312
REMARK  124  A    between atoms: _312  and  _313
REMARK  125  A    between atoms: _316  and  _318
REMARK  126  A    between atoms: _318  and  _319
REMARK  127  A    between atoms: _318  and  _321
REMARK  128  A    between atoms: _321  and  _322
REMARK  129  A    between atoms: _325  and  _327
REMARK  130  A    between atoms: _327  and  _328
REMARK  131  A    between atoms: _327  and  _330
REMARK  132  A    between atoms: _330  and  _331
REMARK  133  A    between atoms: _336  and  _337
REMARK  134  A    between atoms: _339  and  _341
REMARK  135  A    between atoms: _341  and  _342
REMARK  136  A    between atoms: _341  and  _344
REMARK  137  A    between atoms: _344  and  _345
REMARK  138  A    between atoms: _351  and  _353
REMARK  139  A    between atoms: _353  and  _354
REMARK  140  A    between atoms: _353  and  _356
REMARK  141  A    between atoms: _356  and  _357
REMARK  142  A    between atoms: _357  and  _358
REMARK                            x       y       z     vdW  Elec       q    Type
REMARK                         _______ _______ _______ _____ _____    ______ ____
ROOT
ATOM      1  O   HOH     1      -8.944  21.831  -6.287  0.00  0.00    +0.000 OA
ENDROOT
TORSDOF 0
REMARK  Name = ../refined-set-2016/3dri/3dri_pocket.pdb
REMARK  142 active torsions:
REMARK  status: ('A' for Active; 'I' for Inactive)
REMARK    1  A    between atoms: _1  and  _3
REMARK    2  A    between atoms: _3  and  _4
REMARK    3  A    between atoms: _3  and  _6
REMARK    4  A    between atoms: _6  and  _7
REMARK    5  A    between atoms: _10  and  _12
REMARK    6  A    between atoms: _12  and  _13
REMARK    7  A    between atoms: _12  and  _15
REMARK    8  A    between atoms: _15  and  _16
REMARK    9  A    between atoms: _16  and  _17
REMARK   10  A    between atoms: _17  and  _18
REMARK   11  A    between atoms: _27  and  _29
REMARK   12  A    between atoms: _29  and  _30
REMARK   13  A    between atoms: _29  and  _32
REMARK   14  A    between atoms: _32  and  _33
REMARK   15  A    between atoms: _43  and  _45
REMARK   16  A    between atoms: _45  and  _46
REMARK   17  A    between atoms: _45  and  _48
REMARK   18  A    between atoms: _48  and  _49
REMARK   19  A    between atoms: _52  and  _54
REMARK   20  A    between atoms: _54  and  _55
REMARK   21  A    between atoms: _54  and  _57
REMARK   22  A    between atoms: _57  and  _58
REMARK   23  A    between atoms: _61  and  _63
REMARK   24  A    between atoms: _63  and  _64
REMARK   25  A    between atoms: _63  and  _66
REMARK   26  A    between atoms: _66  and  _67
REMARK   27  A    between atoms: _69  and  _71
REMARK   28  A    between atoms: _71  and  _72
REMARK   29  A    between atoms: _71  and  _74
REMARK   30  A    between atoms: _74  and  _75
REMARK   31  A    between atoms: _78  and  _80
REMARK   32  A    between atoms: _80  and  _81
REMARK   33  A    between atoms: _83  and  _85
REMARK   34  A    between atoms: _85  and  _86
REMARK   35  A    between atoms: _85  and  _88
REMARK   36  A    between atoms: _88  and  _89
REMARK   37  A    between atoms: _94  and  _96
REMARK   38  A    between atoms: _96  and  _97
REMARK   39  A    between atoms: _99  and  _101
REMARK   40  A    between atoms: _101  and  _102
REMARK   41  A    between atoms: _101  and  _104
REMARK   42  A    between atoms: _104  and  _105
REMARK   43  A    between atoms: _105  and  _106
REMARK   44  A    between atoms: _108  and  _110
REMARK   45  A    between atoms: _110  and  _111
REMARK   46  A    between atoms: _110  and  _113
REMARK   47  A    between atoms: _113  and  _114
REMARK   48  A    between atoms: _119  and  _120
REMARK   49  A    between atoms: _122  and  _124
REMARK   50  A    between atoms: _124  and  _125
REMARK   51  A    between atoms: _124  and  _127
REMARK   52  A    between atoms: _127  and  _128
REMARK   53  A    between atoms: _131  and  _133
REMARK   54  A    between atoms: _133  and  _134
REMARK   55  A    between atoms: _133  and  _136
REMARK   56  A    between atoms: _136  and  _137
REMARK   57  A    between atoms: _139  and  _141
REMARK   58  A    between atoms: _141  and  _142
REMARK   59  A    between atoms: _141  and  _144
REMARK   60  A    between atoms: _144  and  _145
REMARK   61  A    between atoms: _148  and  _150
REMARK   62  A    between atoms: _150  and  _151
REMARK   63  A    between atoms: _150  and  _153
REMARK   64  A    between atoms: _153  and  _154
REMARK   65  A    between atoms: _154  and  _155
REMARK   66  A    between atoms: _155  and  _156
REMARK   67  A    between atoms: _165  and  _167
REMARK   68  A    between atoms: _167  and  _168
REMARK   69  A    between atoms: _167  and  _170
REMARK   70  A    between atoms: _170  and  _171
REMARK   71  A    between atoms: _177  and  _179
REMARK   72  A    between atoms: _179  and  _180
REMARK   73  A    between atoms: _179  and  _182
REMARK   74  A    between atoms: _182  and  _183
REMARK   75  A    between atoms: _193  and  _195
REMARK   76  A    between atoms: _195  and  _196
REMARK   77  A    between atoms: _195  and  _198
REMARK   78  A    between atoms: _201  and  _203
REMARK   79  A    between atoms: _203  and  _204
REMARK   80  A    between atoms: _203  and  _206
REMARK   81  A    between atoms: _206  and  _207
REMARK   82  A    between atoms: _210  and  _212
REMARK   83  A    between atoms: _212  and  _213
REMARK   84  A    between atoms: _215  and  _217
REMARK   85  A    between atoms: _217  and  _218
REMARK   86  A    between atoms: _217  and  _220
REMARK   87  A    between atoms: _220  and  _221
REMARK   88  A    between atoms: _223  and  _225
REMARK   89  A    between atoms: _225  and  _226
REMARK   90  A    between atoms: _225  and  _228
REMARK   91  A    between atoms: _228  and  _229
REMARK   92  A    between atoms: _239  and  _241
REMARK   93  A    between atoms: _241  and  _242
REMARK   94  A    between atoms: _241  and  _244
REMARK   95  A    between atoms: _244  and  _245
REMARK   96  A    between atoms: _247  and  _249
REMARK   97  A    between atoms: _249  and  _250
REMARK   98  A    between atoms: _249  and  _252
REMARK   99  A    between atoms: _252  and  _253
REMARK  100  A    between atoms: _256  and  _258
REMARK  101  A    between atoms: _258  and  _259
REMARK  102  A    between atoms: _262  and  _264
REMARK  103  A    between atoms: _264  and  _265
REMARK  104  A    between atoms: _264  and  _267
REMARK  105  A    between atoms: _267  and  _268
REMARK  106  A    between atoms: _270  and  _272
REMARK  107  A    between atoms: _272  and  _273
REMARK  108  A    between atoms: _272  and  _275
REMARK  109  A    between atoms: _275  and  _276
REMARK  110  A    between atoms: _276  and  _277
REMARK  111  A    between atoms: _281  and  _282
REMARK  112  A    between atoms: _287  and  _289
REMARK  113  A    between atoms: _289  and  _290
REMARK  114  A    between atoms: _289  and  _292
REMARK  115  A    between atoms: _292  and  _293
REMARK  116  A    between atoms: _295  and  _297
REMARK  117  A    between atoms: _297  and  _298
REMARK  118  A    between atoms: _297  and  _300
REMARK  119  A    between atoms: _300  and  _301
REMARK  120  A    between atoms: _301  and  _302
REMARK  121  A    between atoms: _307  and  _309
REMARK  122  A    between atoms: _309  and  _310
REMARK  123  A    between atoms: _309  and  _312
REMARK  124  A    between atoms: _312  and  _313
REMARK  125  A    between atoms: _316  and  _318
REMARK  126  A    between atoms: _318  and  _319
REMARK  127  A    between atoms: _318  and  _321
REMARK  128  A    between atoms: _321  and  _322
REMARK  129  A    between atoms: _325  and  _327
REMARK  130  A    between atoms: _327  and  _328
REMARK  131  A    between atoms: _327  and  _330
REMARK  132  A    between atoms: _330  and  _331
REMARK  133  A    between atoms: _336  and  _337
REMARK  134  A    between atoms: _339  and  _341
REMARK  135  A    between atoms: _341  and  _342
REMARK  136  A    between atoms: _341  and  _344
REMARK  137  A    between atoms: _344  and  _345
REMARK  138  A    between atoms: _351  and  _353
REMARK  139  A    between atoms: _353  and  _354
REMARK  140  A    between atoms: _353  and  _356
REMARK  141  A    between atoms: _356  and  _357
REMARK  142  A    between atoms: _357  and  _358
REMARK                            x       y       z     vdW  Elec       q    Type
REMARK                         _______ _______ _______ _____ _____    ______ ____
ROOT
ATOM      1  O   HOH     1      -5.565  28.219  -6.335  0.00  0.00    +0.000 OA
ENDROOT
TORSDOF 0
REMARK  Name = ../refined-set-2016/3dri/3dri_pocket.pdb
REMARK  142 active torsions:
REMARK  status: ('A' for Active; 'I' for Inactive)
REMARK    1  A    between atoms: _1  and  _3
REMARK    2  A    between atoms: _3  and  _4
REMARK    3  A    between atoms: _3  and  _6
REMARK    4  A    between atoms: _6  and  _7
REMARK    5  A    between atoms: _10  and  _12
REMARK    6  A    between atoms: _12  and  _13
REMARK    7  A    between atoms: _12  and  _15
REMARK    8  A    between atoms: _15  and  _16
REMARK    9  A    between atoms: _16  and  _17
REMARK   10  A    between atoms: _17  and  _18
REMARK   11  A    between atoms: _27  and  _29
REMARK   12  A    between atoms: _29  and  _30
REMARK   13  A    between atoms: _29  and  _32
REMARK   14  A    between atoms: _32  and  _33
REMARK   15  A    between atoms: _43  and  _45
REMARK   16  A    between atoms: _45  and  _46
REMARK   17  A    between atoms: _45  and  _48
REMARK   18  A    between atoms: _48  and  _49
REMARK   19  A    between atoms: _52  and  _54
REMARK   20  A    between atoms: _54  and  _55
REMARK   21  A    between atoms: _54  and  _57
REMARK   22  A    between atoms: _57  and  _58
REMARK   23  A    between atoms: _61  and  _63
REMARK   24  A    between atoms: _63  and  _64
REMARK   25  A    between atoms: _63  and  _66
REMARK   26  A    between atoms: _66  and  _67
REMARK   27  A    between atoms: _69  and  _71
REMARK   28  A    between atoms: _71  and  _72
REMARK   29  A    between atoms: _71  and  _74
REMARK   30  A    between atoms: _74  and  _75
REMARK   31  A    between atoms: _78  and  _80
REMARK   32  A    between atoms: _80  and  _81
REMARK   33  A    between atoms: _83  and  _85
REMARK   34  A    between atoms: _85  and  _86
REMARK   35  A    between atoms: _85  and  _88
REMARK   36  A    between atoms: _88  and  _89
REMARK   37  A    between atoms: _94  and  _96
REMARK   38  A    between atoms: _96  and  _97
REMARK   39  A    between atoms: _99  and  _101
REMARK   40  A    between atoms: _101  and  _102
REMARK   41  A    between atoms: _101  and  _104
REMARK   42  A    between atoms: _104  and  _105
REMARK   43  A    between atoms: _105  and  _106
REMARK   44  A    between atoms: _108  and  _110
REMARK   45  A    between atoms: _110  and  _111
REMARK   46  A    between atoms: _110  and  _113
REMARK   47  A    between atoms: _113  and  _114
REMARK   48  A    between atoms: _119  and  _120
REMARK   49  A    between atoms: _122  and  _124
REMARK   50  A    between atoms: _124  and  _125
REMARK   51  A    between atoms: _124  and  _127
REMARK   52  A    between atoms: _127  and  _128
REMARK   53  A    between atoms: _131  and  _133
REMARK   54  A    between atoms: _133  and  _134
REMARK   55  A    between atoms: _133  and  _136
REMARK   56  A    between atoms: _136  and  _137
REMARK   57  A    between atoms: _139  and  _141
REMARK   58  A    between atoms: _141  and  _142
REMARK   59  A    between atoms: _141  and  _144
REMARK   60  A    between atoms: _144  and  _145
REMARK   61  A    between atoms: _148  and  _150
REMARK   62  A    between atoms: _150  and  _151
REMARK   63  A    between atoms: _150  and  _153
REMARK   64  A    between atoms: _153  and  _154
REMARK   65  A    between atoms: _154  and  _155
REMARK   66  A    between atoms: _155  and  _156
REMARK   67  A    between atoms: _165  and  _167
REMARK   68  A    between atoms: _167  and  _168
REMARK   69  A    between atoms: _167  and  _170
REMARK   70  A    between atoms: _170  and  _171
REMARK   71  A    between atoms: _177  and  _179
REMARK   72  A    between atoms: _179  and  _180
REMARK   73  A    between atoms: _179  and  _182
REMARK   74  A    between atoms: _182  and  _183
REMARK   75  A    between atoms: _193  and  _195
REMARK   76  A    between atoms: _195  and  _196
REMARK   77  A    between atoms: _195  and  _198
REMARK   78  A    between atoms: _201  and  _203
REMARK   79  A    between atoms: _203  and  _204
REMARK   80  A    between atoms: _203  and  _206
REMARK   81  A    between atoms: _206  and  _207
REMARK   82  A    between atoms: _210  and  _212
REMARK   83  A    between atoms: _212  and  _213
REMARK   84  A    between atoms: _215  and  _217
REMARK   85  A    between atoms: _217  and  _218
REMARK   86  A    between atoms: _217  and  _220
REMARK   87  A    between atoms: _220  and  _221
REMARK   88  A    between atoms: _223  and  _225
REMARK   89  A    between atoms: _225  and  _226
REMARK   90  A    between atoms: _225  and  _228
REMARK   91  A    between atoms: _228  and  _229
REMARK   92  A    between atoms: _239  and  _241
REMARK   93  A    between atoms: _241  and  _242
REMARK   94  A    between atoms: _241  and  _244
REMARK   95  A    between atoms: _244  and  _245
REMARK   96  A    between atoms: _247  and  _249
REMARK   97  A    between atoms: _249  and  _250
REMARK   98  A    between atoms: _249  and  _252
REMARK   99  A    between atoms: _252  and  _253
REMARK  100  A    between atoms: _256  and  _258
REMARK  101  A    between atoms: _258  and  _259
REMARK  102  A    between atoms: _262  and  _264
REMARK  103  A    between atoms: _264  and  _265
REMARK  104  A    between atoms: _264  and  _267
REMARK  105  A    between atoms: _267  and  _268
REMARK  106  A    between atoms: _270  and  _272
REMARK  107  A    between atoms: _272  and  _273
REMARK  108  A    between atoms: _272  and  _275
REMARK  109  A    between atoms: _275  and  _276
REMARK  110  A    between atoms: _276  and  _277
REMARK  111  A    between atoms: _281  and  _282
REMARK  112  A    between atoms: _287  and  _289
REMARK  113  A    between atoms: _289  and  _290
REMARK  114  A    between atoms: _289  and  _292
REMARK  115  A    between atoms: _292  and  _293
REMARK  116  A    between atoms: _295  and  _297
REMARK  117  A    between atoms: _297  and  _298
REMARK  118  A    between atoms: _297  and  _300
REMARK  119  A    between atoms: _300  and  _301
REMARK  120  A    between atoms: _301  and  _302
REMARK  121  A    between atoms: _307  and  _309
REMARK  122  A    between atoms: _309  and  _310
REMARK  123  A    between atoms: _309  and  _312
REMARK  124  A    between atoms: _312  and  _313
REMARK  125  A    between atoms: _316  and  _318
REMARK  126  A    between atoms: _318  and  _319
REMARK  127  A    between atoms: _318  and  _321
REMARK  128  A    between atoms: _321  and  _322
REMARK  129  A    between atoms: _325  and  _327
REMARK  130  A    between atoms: _327  and  _328
REMARK  131  A    between atoms: _327  and  _330
REMARK  132  A    between atoms: _330  and  _331
REMARK  133  A    between atoms: _336  and  _337
REMARK  134  A    between atoms: _339  and  _341
REMARK  135  A    between atoms: _341  and  _342
REMARK  136  A    between atoms: _341  and  _344
REMARK  137  A    between atoms: _344  and  _345
REMARK  138  A    between atoms: _351  and  _353
REMARK  139  A    between atoms: _353  and  _354
REMARK  140  A    between atoms: _353  and  _356
REMARK  141  A    between atoms: _356  and  _357
REMARK  142  A    between atoms: _357  and  _358
REMARK                            x       y       z     vdW  Elec       q    Type
REMARK                         _______ _______ _______ _____ _____    ______ ____
ROOT
ATOM      1  O   HOH     1      -5.407  16.446  -3.956  0.00  0.00    +0.000 OA
ENDROOT
TORSDOF 0
REMARK  Name = ../refined-set-2016/3dri/3dri_pocket.pdb
REMARK  142 active torsions:
REMARK  status: ('A' for Active; 'I' for Inactive)
REMARK    1  A    between atoms: _1  and  _3
REMARK    2  A    between atoms: _3  and  _4
REMARK    3  A    between atoms: _3  and  _6
REMARK    4  A    between atoms: _6  and  _7
REMARK    5  A    between atoms: _10  and  _12
REMARK    6  A    between atoms: _12  and  _13
REMARK    7  A    between atoms: _12  and  _15
REMARK    8  A    between atoms: _15  and  _16
REMARK    9  A    between atoms: _16  and  _17
REMARK   10  A    between atoms: _17  and  _18
REMARK   11  A    between atoms: _27  and  _29
REMARK   12  A    between atoms: _29  and  _30
REMARK   13  A    between atoms: _29  and  _32
REMARK   14  A    between atoms: _32  and  _33
REMARK   15  A    between atoms: _43  and  _45
REMARK   16  A    between atoms: _45  and  _46
REMARK   17  A    between atoms: _45  and  _48
REMARK   18  A    between atoms: _48  and  _49
REMARK   19  A    between atoms: _52  and  _54
REMARK   20  A    between atoms: _54  and  _55
REMARK   21  A    between atoms: _54  and  _57
REMARK   22  A    between atoms: _57  and  _58
REMARK   23  A    between atoms: _61  and  _63
REMARK   24  A    between atoms: _63  and  _64
REMARK   25  A    between atoms: _63  and  _66
REMARK   26  A    between atoms: _66  and  _67
REMARK   27  A    between atoms: _69  and  _71
REMARK   28  A    between atoms: _71  and  _72
REMARK   29  A    between atoms: _71  and  _74
REMARK   30  A    between atoms: _74  and  _75
REMARK   31  A    between atoms: _78  and  _80
REMARK   32  A    between atoms: _80  and  _81
REMARK   33  A    between atoms: _83  and  _85
REMARK   34  A    between atoms: _85  and  _86
REMARK   35  A    between atoms: _85  and  _88
REMARK   36  A    between atoms: _88  and  _89
REMARK   37  A    between atoms: _94  and  _96
REMARK   38  A    between atoms: _96  and  _97
REMARK   39  A    between atoms: _99  and  _101
REMARK   40  A    between atoms: _101  and  _102
REMARK   41  A    between atoms: _101  and  _104
REMARK   42  A    between atoms: _104  and  _105
REMARK   43  A    between atoms: _105  and  _106
REMARK   44  A    between atoms: _108  and  _110
REMARK   45  A    between atoms: _110  and  _111
REMARK   46  A    between atoms: _110  and  _113
REMARK   47  A    between atoms: _113  and  _114
REMARK   48  A    between atoms: _119  and  _120
REMARK   49  A    between atoms: _122  and  _124
REMARK   50  A    between atoms: _124  and  _125
REMARK   51  A    between atoms: _124  and  _127
REMARK   52  A    between atoms: _127  and  _128
REMARK   53  A    between atoms: _131  and  _133
REMARK   54  A    between atoms: _133  and  _134
REMARK   55  A    between atoms: _133  and  _136
REMARK   56  A    between atoms: _136  and  _137
REMARK   57  A    between atoms: _139  and  _141
REMARK   58  A    between atoms: _141  and  _142
REMARK   59  A    between atoms: _141  and  _144
REMARK   60  A    between atoms: _144  and  _145
REMARK   61  A    between atoms: _148  and  _150
REMARK   62  A    between atoms: _150  and  _151
REMARK   63  A    between atoms: _150  and  _153
REMARK   64  A    between atoms: _153  and  _154
REMARK   65  A    between atoms: _154  and  _155
REMARK   66  A    between atoms: _155  and  _156
REMARK   67  A    between atoms: _165  and  _167
REMARK   68  A    between atoms: _167  and  _168
REMARK   69  A    between atoms: _167  and  _170
REMARK   70  A    between atoms: _170  and  _171
REMARK   71  A    between atoms: _177  and  _179
REMARK   72  A    between atoms: _179  and  _180
REMARK   73  A    between atoms: _179  and  _182
REMARK   74  A    between atoms: _182  and  _183
REMARK   75  A    between atoms: _193  and  _195
REMARK   76  A    between atoms: _195  and  _196
REMARK   77  A    between atoms: _195  and  _198
REMARK   78  A    between atoms: _201  and  _203
REMARK   79  A    between atoms: _203  and  _204
REMARK   80  A    between atoms: _203  and  _206
REMARK   81  A    between atoms: _206  and  _207
REMARK   82  A    between atoms: _210  and  _212
REMARK   83  A    between atoms: _212  and  _213
REMARK   84  A    between atoms: _215  and  _217
REMARK   85  A    between atoms: _217  and  _218
REMARK   86  A    between atoms: _217  and  _220
REMARK   87  A    between atoms: _220  and  _221
REMARK   88  A    between atoms: _223  and  _225
REMARK   89  A    between atoms: _225  and  _226
REMARK   90  A    between atoms: _225  and  _228
REMARK   91  A    between atoms: _228  and  _229
REMARK   92  A    between atoms: _239  and  _241
REMARK   93  A    between atoms: _241  and  _242
REMARK   94  A    between atoms: _241  and  _244
REMARK   95  A    between atoms: _244  and  _245
REMARK   96  A    between atoms: _247  and  _249
REMARK   97  A    between atoms: _249  and  _250
REMARK   98  A    between atoms: _249  and  _252
REMARK   99  A    between atoms: _252  and  _253
REMARK  100  A    between atoms: _256  and  _258
REMARK  101  A    between atoms: _258  and  _259
REMARK  102  A    between atoms: _262  and  _264
REMARK  103  A    between atoms: _264  and  _265
REMARK  104  A    between atoms: _264  and  _267
REMARK  105  A    between atoms: _267  and  _268
REMARK  106  A    between atoms: _270  and  _272
REMARK  107  A    between atoms: _272  and  _273
REMARK  108  A    between atoms: _272  and  _275
REMARK  109  A    between atoms: _275  and  _276
REMARK  110  A    between atoms: _276  and  _277
REMARK  111  A    between atoms: _281  and  _282
REMARK  112  A    between atoms: _287  and  _289
REMARK  113  A    between atoms: _289  and  _290
REMARK  114  A    between atoms: _289  and  _292
REMARK  115  A    between atoms: _292  and  _293
REMARK  116  A    between atoms: _295  and  _297
REMARK  117  A    between atoms: _297  and  _298
REMARK  118  A    between atoms: _297  and  _300
REMARK  119  A    between atoms: _300  and  _301
REMARK  120  A    between atoms: _301  and  _302
REMARK  121  A    between atoms: _307  and  _309
REMARK  122  A    between atoms: _309  and  _310
REMARK  123  A    between atoms: _309  and  _312
REMARK  124  A    between atoms: _312  and  _313
REMARK  125  A    between atoms: _316  and  _318
REMARK  126  A    between atoms: _318  and  _319
REMARK  127  A    between atoms: _318  and  _321
REMARK  128  A    between atoms: _321  and  _322
REMARK  129  A    between atoms: _325  and  _327
REMARK  130  A    between atoms: _327  and  _328
REMARK  131  A    between atoms: _327  and  _330
REMARK  132  A    between atoms: _330  and  _331
REMARK  133  A    between atoms: _336  and  _337
REMARK  134  A    between atoms: _339  and  _341
REMARK  135  A    between atoms: _341  and  _342
REMARK  136  A    between atoms: _341  and  _344
REMARK  137  A    between atoms: _344  and  _345
REMARK  138  A    between atoms: _351  and  _353
REMARK  139  A    between atoms: _353  and  _354
REMARK  140  A    between atoms: _353  and  _356
REMARK  141  A    between atoms: _356  and  _357
REMARK  142  A    between atoms: _357  and  _358
REMARK                            x       y       z     vdW  Elec       q    Type
REMARK                         _______ _______ _______ _____ _____    ______ ____
ROOT
ATOM      1  O   HOH     1      -6.042  28.942  -3.933  0.00  0.00    +0.000 OA
ENDROOT
TORSDOF 0
REMARK  Name = ../refined-set-2016/3dri/3dri_pocket.pdb
REMARK  142 active torsions:
REMARK  status: ('A' for Active; 'I' for Inactive)
REMARK    1  A    between atoms: _1  and  _3
REMARK    2  A    between atoms: _3  and  _4
REMARK    3  A    between atoms: _3  and  _6
REMARK    4  A    between atoms: _6  and  _7
REMARK    5  A    between atoms: _10  and  _12
REMARK    6  A    between atoms: _12  and  _13
REMARK    7  A    between atoms: _12  and  _15
REMARK    8  A    between atoms: _15  and  _16
REMARK    9  A    between atoms: _16  and  _17
REMARK   10  A    between atoms: _17  and  _18
REMARK   11  A    between atoms: _27  and  _29
REMARK   12  A    between atoms: _29  and  _30
REMARK   13  A    between atoms: _29  and  _32
REMARK   14  A    between atoms: _32  and  _33
REMARK   15  A    between atoms: _43  and  _45
REMARK   16  A    between atoms: _45  and  _46
REMARK   17  A    between atoms: _45  and  _48
REMARK   18  A    between atoms: _48  and  _49
REMARK   19  A    between atoms: _52  and  _54
REMARK   20  A    between atoms: _54  and  _55
REMARK   21  A    between atoms: _54  and  _57
REMARK   22  A    between atoms: _57  and  _58
REMARK   23  A    between atoms: _61  and  _63
REMARK   24  A    between atoms: _63  and  _64
REMARK   25  A    between atoms: _63  and  _66
REMARK   26  A    between atoms: _66  and  _67
REMARK   27  A    between atoms: _69  and  _71
REMARK   28  A    between atoms: _71  and  _72
REMARK   29  A    between atoms: _71  and  _74
REMARK   30  A    between atoms: _74  and  _75
REMARK   31  A    between atoms: _78  and  _80
REMARK   32  A    between atoms: _80  and  _81
REMARK   33  A    between atoms: _83  and  _85
REMARK   34  A    between atoms: _85  and  _86
REMARK   35  A    between atoms: _85  and  _88
REMARK   36  A    between atoms: _88  and  _89
REMARK   37  A    between atoms: _94  and  _96
REMARK   38  A    between atoms: _96  and  _97
REMARK   39  A    between atoms: _99  and  _101
REMARK   40  A    between atoms: _101  and  _102
REMARK   41  A    between atoms: _101  and  _104
REMARK   42  A    between atoms: _104  and  _105
REMARK   43  A    between atoms: _105  and  _106
REMARK   44  A    between atoms: _108  and  _110
REMARK   45  A    between atoms: _110  and  _111
REMARK   46  A    between atoms: _110  and  _113
REMARK   47  A    between atoms: _113  and  _114
REMARK   48  A    between atoms: _119  and  _120
REMARK   49  A    between atoms: _122  and  _124
REMARK   50  A    between atoms: _124  and  _125
REMARK   51  A    between atoms: _124  and  _127
REMARK   52  A    between atoms: _127  and  _128
REMARK   53  A    between atoms: _131  and  _133
REMARK   54  A    between atoms: _133  and  _134
REMARK   55  A    between atoms: _133  and  _136
REMARK   56  A    between atoms: _136  and  _137
REMARK   57  A    between atoms: _139  and  _141
REMARK   58  A    between atoms: _141  and  _142
REMARK   59  A    between atoms: _141  and  _144
REMARK   60  A    between atoms: _144  and  _145
REMARK   61  A    between atoms: _148  and  _150
REMARK   62  A    between atoms: _150  and  _151
REMARK   63  A    between atoms: _150  and  _153
REMARK   64  A    between atoms: _153  and  _154
REMARK   65  A    between atoms: _154  and  _155
REMARK   66  A    between atoms: _155  and  _156
REMARK   67  A    between atoms: _165  and  _167
REMARK   68  A    between atoms: _167  and  _168
REMARK   69  A    between atoms: _167  and  _170
REMARK   70  A    between atoms: _170  and  _171
REMARK   71  A    between atoms: _177  and  _179
REMARK   72  A    between atoms: _179  and  _180
REMARK   73  A    between atoms: _179  and  _182
REMARK   74  A    between atoms: _182  and  _183
REMARK   75  A    between atoms: _193  and  _195
REMARK   76  A    between atoms: _195  and  _196
REMARK   77  A    between atoms: _195  and  _198
REMARK   78  A    between atoms: _201  and  _203
REMARK   79  A    between atoms: _203  and  _204
REMARK   80  A    between atoms: _203  and  _206
REMARK   81  A    between atoms: _206  and  _207
REMARK   82  A    between atoms: _210  and  _212
REMARK   83  A    between atoms: _212  and  _213
REMARK   84  A    between atoms: _215  and  _217
REMARK   85  A    between atoms: _217  and  _218
REMARK   86  A    between atoms: _217  and  _220
REMARK   87  A    between atoms: _220  and  _221
REMARK   88  A    between atoms: _223  and  _225
REMARK   89  A    between atoms: _225  and  _226
REMARK   90  A    between atoms: _225  and  _228
REMARK   91  A    between atoms: _228  and  _229
REMARK   92  A    between atoms: _239  and  _241
REMARK   93  A    between atoms: _241  and  _242
REMARK   94  A    between atoms: _241  and  _244
REMARK   95  A    between atoms: _244  and  _245
REMARK   96  A    between atoms: _247  and  _249
REMARK   97  A    between atoms: _249  and  _250
REMARK   98  A    between atoms: _249  and  _252
REMARK   99  A    between atoms: _252  and  _253
REMARK  100  A    between atoms: _256  and  _258
REMARK  101  A    between atoms: _258  and  _259
REMARK  102  A    between atoms: _262  and  _264
REMARK  103  A    between atoms: _264  and  _265
REMARK  104  A    between atoms: _264  and  _267
REMARK  105  A    between atoms: _267  and  _268
REMARK  106  A    between atoms: _270  and  _272
REMARK  107  A    between atoms: _272  and  _273
REMARK  108  A    between atoms: _272  and  _275
REMARK  109  A    between atoms: _275  and  _276
REMARK  110  A    between atoms: _276  and  _277
REMARK  111  A    between atoms: _281  and  _282
REMARK  112  A    between atoms: _287  and  _289
REMARK  113  A    between atoms: _289  and  _290
REMARK  114  A    between atoms: _289  and  _292
REMARK  115  A    between atoms: _292  and  _293
REMARK  116  A    between atoms: _295  and  _297
REMARK  117  A    between atoms: _297  and  _298
REMARK  118  A    between atoms: _297  and  _300
REMARK  119  A    between atoms: _300  and  _301
REMARK  120  A    between atoms: _301  and  _302
REMARK  121  A    between atoms: _307  and  _309
REMARK  122  A    between atoms: _309  and  _310
REMARK  123  A    between atoms: _309  and  _312
REMARK  124  A    between atoms: _312  and  _313
REMARK  125  A    between atoms: _316  and  _318
REMARK  126  A    between atoms: _318  and  _319
REMARK  127  A    between atoms: _318  and  _321
REMARK  128  A    between atoms: _321  and  _322
REMARK  129  A    between atoms: _325  and  _327
REMARK  130  A    between atoms: _327  and  _328
REMARK  131  A    between atoms: _327  and  _330
REMARK  132  A    between atoms: _330  and  _331
REMARK  133  A    between atoms: _336  and  _337
REMARK  134  A    between atoms: _339  and  _341
REMARK  135  A    between atoms: _341  and  _342
REMARK  136  A    between atoms: _341  and  _344
REMARK  137  A    between atoms: _344  and  _345
REMARK  138  A    between atoms: _351  and  _353
REMARK  139  A    between atoms: _353  and  _354
REMARK  140  A    between atoms: _353  and  _356
REMARK  141  A    between atoms: _356  and  _357
REMARK  142  A    between atoms: _357  and  _358
REMARK                            x       y       z     vdW  Elec       q    Type
REMARK                         _______ _______ _______ _____ _____    ______ ____
ROOT
ATOM      1  O   HOH     1      -2.205  27.906  -3.180  0.00  0.00    +0.000 OA
ENDROOT
TORSDOF 0
REMARK  Name = ../refined-set-2016/3dri/3dri_pocket.pdb
REMARK  142 active torsions:
REMARK  status: ('A' for Active; 'I' for Inactive)
REMARK    1  A    between atoms: _1  and  _3
REMARK    2  A    between atoms: _3  and  _4
REMARK    3  A    between atoms: _3  and  _6
REMARK    4  A    between atoms: _6  and  _7
REMARK    5  A    between atoms: _10  and  _12
REMARK    6  A    between atoms: _12  and  _13
REMARK    7  A    between atoms: _12  and  _15
REMARK    8  A    between atoms: _15  and  _16
REMARK    9  A    between atoms: _16  and  _17
REMARK   10  A    between atoms: _17  and  _18
REMARK   11  A    between atoms: _27  and  _29
REMARK   12  A    between atoms: _29  and  _30
REMARK   13  A    between atoms: _29  and  _32
REMARK   14  A    between atoms: _32  and  _33
REMARK   15  A    between atoms: _43  and  _45
REMARK   16  A    between atoms: _45  and  _46
REMARK   17  A    between atoms: _45  and  _48
REMARK   18  A    between atoms: _48  and  _49
REMARK   19  A    between atoms: _52  and  _54
REMARK   20  A    between atoms: _54  and  _55
REMARK   21  A    between atoms: _54  and  _57
REMARK   22  A    between atoms: _57  and  _58
REMARK   23  A    between atoms: _61  and  _63
REMARK   24  A    between atoms: _63  and  _64
REMARK   25  A    between atoms: _63  and  _66
REMARK   26  A    between atoms: _66  and  _67
REMARK   27  A    between atoms: _69  and  _71
REMARK   28  A    between atoms: _71  and  _72
REMARK   29  A    between atoms: _71  and  _74
REMARK   30  A    between atoms: _74  and  _75
REMARK   31  A    between atoms: _78  and  _80
REMARK   32  A    between atoms: _80  and  _81
REMARK   33  A    between atoms: _83  and  _85
REMARK   34  A    between atoms: _85  and  _86
REMARK   35  A    between atoms: _85  and  _88
REMARK   36  A    between atoms: _88  and  _89
REMARK   37  A    between atoms: _94  and  _96
REMARK   38  A    between atoms: _96  and  _97
REMARK   39  A    between atoms: _99  and  _101
REMARK   40  A    between atoms: _101  and  _102
REMARK   41  A    between atoms: _101  and  _104
REMARK   42  A    between atoms: _104  and  _105
REMARK   43  A    between atoms: _105  and  _106
REMARK   44  A    between atoms: _108  and  _110
REMARK   45  A    between atoms: _110  and  _111
REMARK   46  A    between atoms: _110  and  _113
REMARK   47  A    between atoms: _113  and  _114
REMARK   48  A    between atoms: _119  and  _120
REMARK   49  A    between atoms: _122  and  _124
REMARK   50  A    between atoms: _124  and  _125
REMARK   51  A    between atoms: _124  and  _127
REMARK   52  A    between atoms: _127  and  _128
REMARK   53  A    between atoms: _131  and  _133
REMARK   54  A    between atoms: _133  and  _134
REMARK   55  A    between atoms: _133  and  _136
REMARK   56  A    between atoms: _136  and  _137
REMARK   57  A    between atoms: _139  and  _141
REMARK   58  A    between atoms: _141  and  _142
REMARK   59  A    between atoms: _141  and  _144
REMARK   60  A    between atoms: _144  and  _145
REMARK   61  A    between atoms: _148  and  _150
REMARK   62  A    between atoms: _150  and  _151
REMARK   63  A    between atoms: _150  and  _153
REMARK   64  A    between atoms: _153  and  _154
REMARK   65  A    between atoms: _154  and  _155
REMARK   66  A    between atoms: _155  and  _156
REMARK   67  A    between atoms: _165  and  _167
REMARK   68  A    between atoms: _167  and  _168
REMARK   69  A    between atoms: _167  and  _170
REMARK   70  A    between atoms: _170  and  _171
REMARK   71  A    between atoms: _177  and  _179
REMARK   72  A    between atoms: _179  and  _180
REMARK   73  A    between atoms: _179  and  _182
REMARK   74  A    between atoms: _182  and  _183
REMARK   75  A    between atoms: _193  and  _195
REMARK   76  A    between atoms: _195  and  _196
REMARK   77  A    between atoms: _195  and  _198
REMARK   78  A    between atoms: _201  and  _203
REMARK   79  A    between atoms: _203  and  _204
REMARK   80  A    between atoms: _203  and  _206
REMARK   81  A    between atoms: _206  and  _207
REMARK   82  A    between atoms: _210  and  _212
REMARK   83  A    between atoms: _212  and  _213
REMARK   84  A    between atoms: _215  and  _217
REMARK   85  A    between atoms: _217  and  _218
REMARK   86  A    between atoms: _217  and  _220
REMARK   87  A    between atoms: _220  and  _221
REMARK   88  A    between atoms: _223  and  _225
REMARK   89  A    between atoms: _225  and  _226
REMARK   90  A    between atoms: _225  and  _228
REMARK   91  A    between atoms: _228  and  _229
REMARK   92  A    between atoms: _239  and  _241
REMARK   93  A    between atoms: _241  and  _242
REMARK   94  A    between atoms: _241  and  _244
REMARK   95  A    between atoms: _244  and  _245
REMARK   96  A    between atoms: _247  and  _249
REMARK   97  A    between atoms: _249  and  _250
REMARK   98  A    between atoms: _249  and  _252
REMARK   99  A    between atoms: _252  and  _253
REMARK  100  A    between atoms: _256  and  _258
REMARK  101  A    between atoms: _258  and  _259
REMARK  102  A    between atoms: _262  and  _264
REMARK  103  A    between atoms: _264  and  _265
REMARK  104  A    between atoms: _264  and  _267
REMARK  105  A    between atoms: _267  and  _268
REMARK  106  A    between atoms: _270  and  _272
REMARK  107  A    between atoms: _272  and  _273
REMARK  108  A    between atoms: _272  and  _275
REMARK  109  A    between atoms: _275  and  _276
REMARK  110  A    between atoms: _276  and  _277
REMARK  111  A    between atoms: _281  and  _282
REMARK  112  A    between atoms: _287  and  _289
REMARK  113  A    between atoms: _289  and  _290
REMARK  114  A    between atoms: _289  and  _292
REMARK  115  A    between atoms: _292  and  _293
REMARK  116  A    between atoms: _295  and  _297
REMARK  117  A    between atoms: _297  and  _298
REMARK  118  A    between atoms: _297  and  _300
REMARK  119  A    between atoms: _300  and  _301
REMARK  120  A    between atoms: _301  and  _302
REMARK  121  A    between atoms: _307  and  _309
REMARK  122  A    between atoms: _309  and  _310
REMARK  123  A    between atoms: _309  and  _312
REMARK  124  A    between atoms: _312  and  _313
REMARK  125  A    between atoms: _316  and  _318
REMARK  126  A    between atoms: _318  and  _319
REMARK  127  A    between atoms: _318  and  _321
REMARK  128  A    between atoms: _321  and  _322
REMARK  129  A    between atoms: _325  and  _327
REMARK  130  A    between atoms: _327  and  _328
REMARK  131  A    between atoms: _327  and  _330
REMARK  132  A    between atoms: _330  and  _331
REMARK  133  A    between atoms: _336  and  _337
REMARK  134  A    between atoms: _339  and  _341
REMARK  135  A    between atoms: _341  and  _342
REMARK  136  A    between atoms: _341  and  _344
REMARK  137  A    between atoms: _344  and  _345
REMARK  138  A    between atoms: _351  and  _353
REMARK  139  A    between atoms: _353  and  _354
REMARK  140  A    between atoms: _353  and  _356
REMARK  141  A    between atoms: _356  and  _357
REMARK  142  A    between atoms: _357  and  _358
REMARK                            x       y       z     vdW  Elec       q    Type
REMARK                         _______ _______ _______ _____ _____    ______ ____
ROOT
ATOM      1  O   HOH     1     -10.185  22.452   5.251  0.00  0.00    +0.000 OA
ENDROOT
TORSDOF 0
REMARK  Name = ../refined-set-2016/3dri/3dri_pocket.pdb
REMARK  142 active torsions:
REMARK  status: ('A' for Active; 'I' for Inactive)
REMARK    1  A    between atoms: _1  and  _3
REMARK    2  A    between atoms: _3  and  _4
REMARK    3  A    between atoms: _3  and  _6
REMARK    4  A    between atoms: _6  and  _7
REMARK    5  A    between atoms: _10  and  _12
REMARK    6  A    between atoms: _12  and  _13
REMARK    7  A    between atoms: _12  and  _15
REMARK    8  A    between atoms: _15  and  _16
REMARK    9  A    between atoms: _16  and  _17
REMARK   10  A    between atoms: _17  and  _18
REMARK   11  A    between atoms: _27  and  _29
REMARK   12  A    between atoms: _29  and  _30
REMARK   13  A    between atoms: _29  and  _32
REMARK   14  A    between atoms: _32  and  _33
REMARK   15  A    between atoms: _43  and  _45
REMARK   16  A    between atoms: _45  and  _46
REMARK   17  A    between atoms: _45  and  _48
REMARK   18  A    between atoms: _48  and  _49
REMARK   19  A    between atoms: _52  and  _54
REMARK   20  A    between atoms: _54  and  _55
REMARK   21  A    between atoms: _54  and  _57
REMARK   22  A    between atoms: _57  and  _58
REMARK   23  A    between atoms: _61  and  _63
REMARK   24  A    between atoms: _63  and  _64
REMARK   25  A    between atoms: _63  and  _66
REMARK   26  A    between atoms: _66  and  _67
REMARK   27  A    between atoms: _69  and  _71
REMARK   28  A    between atoms: _71  and  _72
REMARK   29  A    between atoms: _71  and  _74
REMARK   30  A    between atoms: _74  and  _75
REMARK   31  A    between atoms: _78  and  _80
REMARK   32  A    between atoms: _80  and  _81
REMARK   33  A    between atoms: _83  and  _85
REMARK   34  A    between atoms: _85  and  _86
REMARK   35  A    between atoms: _85  and  _88
REMARK   36  A    between atoms: _88  and  _89
REMARK   37  A    between atoms: _94  and  _96
REMARK   38  A    between atoms: _96  and  _97
REMARK   39  A    between atoms: _99  and  _101
REMARK   40  A    between atoms: _101  and  _102
REMARK   41  A    between atoms: _101  and  _104
REMARK   42  A    between atoms: _104  and  _105
REMARK   43  A    between atoms: _105  and  _106
REMARK   44  A    between atoms: _108  and  _110
REMARK   45  A    between atoms: _110  and  _111
REMARK   46  A    between atoms: _110  and  _113
REMARK   47  A    between atoms: _113  and  _114
REMARK   48  A    between atoms: _119  and  _120
REMARK   49  A    between atoms: _122  and  _124
REMARK   50  A    between atoms: _124  and  _125
REMARK   51  A    between atoms: _124  and  _127
REMARK   52  A    between atoms: _127  and  _128
REMARK   53  A    between atoms: _131  and  _133
REMARK   54  A    between atoms: _133  and  _134
REMARK   55  A    between atoms: _133  and  _136
REMARK   56  A    between atoms: _136  and  _137
REMARK   57  A    between atoms: _139  and  _141
REMARK   58  A    between atoms: _141  and  _142
REMARK   59  A    between atoms: _141  and  _144
REMARK   60  A    between atoms: _144  and  _145
REMARK   61  A    between atoms: _148  and  _150
REMARK   62  A    between atoms: _150  and  _151
REMARK   63  A    between atoms: _150  and  _153
REMARK   64  A    between atoms: _153  and  _154
REMARK   65  A    between atoms: _154  and  _155
REMARK   66  A    between atoms: _155  and  _156
REMARK   67  A    between atoms: _165  and  _167
REMARK   68  A    between atoms: _167  and  _168
REMARK   69  A    between atoms: _167  and  _170
REMARK   70  A    between atoms: _170  and  _171
REMARK   71  A    between atoms: _177  and  _179
REMARK   72  A    between atoms: _179  and  _180
REMARK   73  A    between atoms: _179  and  _182
REMARK   74  A    between atoms: _182  and  _183
REMARK   75  A    between atoms: _193  and  _195
REMARK   76  A    between atoms: _195  and  _196
REMARK   77  A    between atoms: _195  and  _198
REMARK   78  A    between atoms: _201  and  _203
REMARK   79  A    between atoms: _203  and  _204
REMARK   80  A    between atoms: _203  and  _206
REMARK   81  A    between atoms: _206  and  _207
REMARK   82  A    between atoms: _210  and  _212
REMARK   83  A    between atoms: _212  and  _213
REMARK   84  A    between atoms: _215  and  _217
REMARK   85  A    between atoms: _217  and  _218
REMARK   86  A    between atoms: _217  and  _220
REMARK   87  A    between atoms: _220  and  _221
REMARK   88  A    between atoms: _223  and  _225
REMARK   89  A    between atoms: _225  and  _226
REMARK   90  A    between atoms: _225  and  _228
REMARK   91  A    between atoms: _228  and  _229
REMARK   92  A    between atoms: _239  and  _241
REMARK   93  A    between atoms: _241  and  _242
REMARK   94  A    between atoms: _241  and  _244
REMARK   95  A    between atoms: _244  and  _245
REMARK   96  A    between atoms: _247  and  _249
REMARK   97  A    between atoms: _249  and  _250
REMARK   98  A    between atoms: _249  and  _252
REMARK   99  A    between atoms: _252  and  _253
REMARK  100  A    between atoms: _256  and  _258
REMARK  101  A    between atoms: _258  and  _259
REMARK  102  A    between atoms: _262  and  _264
REMARK  103  A    between atoms: _264  and  _265
REMARK  104  A    between atoms: _264  and  _267
REMARK  105  A    between atoms: _267  and  _268
REMARK  106  A    between atoms: _270  and  _272
REMARK  107  A    between atoms: _272  and  _273
REMARK  108  A    between atoms: _272  and  _275
REMARK  109  A    between atoms: _275  and  _276
REMARK  110  A    between atoms: _276  and  _277
REMARK  111  A    between atoms: _281  and  _282
REMARK  112  A    between atoms: _287  and  _289
REMARK  113  A    between atoms: _289  and  _290
REMARK  114  A    between atoms: _289  and  _292
REMARK  115  A    between atoms: _292  and  _293
REMARK  116  A    between atoms: _295  and  _297
REMARK  117  A    between atoms: _297  and  _298
REMARK  118  A    between atoms: _297  and  _300
REMARK  119  A    between atoms: _300  and  _301
REMARK  120  A    between atoms: _301  and  _302
REMARK  121  A    between atoms: _307  and  _309
REMARK  122  A    between atoms: _309  and  _310
REMARK  123  A    between atoms: _309  and  _312
REMARK  124  A    between atoms: _312  and  _313
REMARK  125  A    between atoms: _316  and  _318
REMARK  126  A    between atoms: _318  and  _319
REMARK  127  A    between atoms: _318  and  _321
REMARK  128  A    between atoms: _321  and  _322
REMARK  129  A    between atoms: _325  and  _327
REMARK  130  A    between atoms: _327  and  _328
REMARK  131  A    between atoms: _327  and  _330
REMARK  132  A    between atoms: _330  and  _331
REMARK  133  A    between atoms: _336  and  _337
REMARK  134  A    between atoms: _339  and  _341
REMARK  135  A    between atoms: _341  and  _342
REMARK  136  A    between atoms: _341  and  _344
REMARK  137  A    between atoms: _344  and  _345
REMARK  138  A    between atoms: _351  and  _353
REMARK  139  A    between atoms: _353  and  _354
REMARK  140  A    between atoms: _353  and  _356
REMARK  141  A    between atoms: _356  and  _357
REMARK  142  A    between atoms: _357  and  _358
REMARK                            x       y       z     vdW  Elec       q    Type
REMARK                         _______ _______ _______ _____ _____    ______ ____
ROOT
ATOM      1  O   HOH     1       0.327  15.973  -1.328  0.00  0.00    +0.000 OA
ENDROOT
TORSDOF 0
REMARK  Name = ../refined-set-2016/3dri/3dri_pocket.pdb
REMARK  142 active torsions:
REMARK  status: ('A' for Active; 'I' for Inactive)
REMARK    1  A    between atoms: _1  and  _3
REMARK    2  A    between atoms: _3  and  _4
REMARK    3  A    between atoms: _3  and  _6
REMARK    4  A    between atoms: _6  and  _7
REMARK    5  A    between atoms: _10  and  _12
REMARK    6  A    between atoms: _12  and  _13
REMARK    7  A    between atoms: _12  and  _15
REMARK    8  A    between atoms: _15  and  _16
REMARK    9  A    between atoms: _16  and  _17
REMARK   10  A    between atoms: _17  and  _18
REMARK   11  A    between atoms: _27  and  _29
REMARK   12  A    between atoms: _29  and  _30
REMARK   13  A    between atoms: _29  and  _32
REMARK   14  A    between atoms: _32  and  _33
REMARK   15  A    between atoms: _43  and  _45
REMARK   16  A    between atoms: _45  and  _46
REMARK   17  A    between atoms: _45  and  _48
REMARK   18  A    between atoms: _48  and  _49
REMARK   19  A    between atoms: _52  and  _54
REMARK   20  A    between atoms: _54  and  _55
REMARK   21  A    between atoms: _54  and  _57
REMARK   22  A    between atoms: _57  and  _58
REMARK   23  A    between atoms: _61  and  _63
REMARK   24  A    between atoms: _63  and  _64
REMARK   25  A    between atoms: _63  and  _66
REMARK   26  A    between atoms: _66  and  _67
REMARK   27  A    between atoms: _69  and  _71
REMARK   28  A    between atoms: _71  and  _72
REMARK   29  A    between atoms: _71  and  _74
REMARK   30  A    between atoms: _74  and  _75
REMARK   31  A    between atoms: _78  and  _80
REMARK   32  A    between atoms: _80  and  _81
REMARK   33  A    between atoms: _83  and  _85
REMARK   34  A    between atoms: _85  and  _86
REMARK   35  A    between atoms: _85  and  _88
REMARK   36  A    between atoms: _88  and  _89
REMARK   37  A    between atoms: _94  and  _96
REMARK   38  A    between atoms: _96  and  _97
REMARK   39  A    between atoms: _99  and  _101
REMARK   40  A    between atoms: _101  and  _102
REMARK   41  A    between atoms: _101  and  _104
REMARK   42  A    between atoms: _104  and  _105
REMARK   43  A    between atoms: _105  and  _106
REMARK   44  A    between atoms: _108  and  _110
REMARK   45  A    between atoms: _110  and  _111
REMARK   46  A    between atoms: _110  and  _113
REMARK   47  A    between atoms: _113  and  _114
REMARK   48  A    between atoms: _119  and  _120
REMARK   49  A    between atoms: _122  and  _124
REMARK   50  A    between atoms: _124  and  _125
REMARK   51  A    between atoms: _124  and  _127
REMARK   52  A    between atoms: _127  and  _128
REMARK   53  A    between atoms: _131  and  _133
REMARK   54  A    between atoms: _133  and  _134
REMARK   55  A    between atoms: _133  and  _136
REMARK   56  A    between atoms: _136  and  _137
REMARK   57  A    between atoms: _139  and  _141
REMARK   58  A    between atoms: _141  and  _142
REMARK   59  A    between atoms: _141  and  _144
REMARK   60  A    between atoms: _144  and  _145
REMARK   61  A    between atoms: _148  and  _150
REMARK   62  A    between atoms: _150  and  _151
REMARK   63  A    between atoms: _150  and  _153
REMARK   64  A    between atoms: _153  and  _154
REMARK   65  A    between atoms: _154  and  _155
REMARK   66  A    between atoms: _155  and  _156
REMARK   67  A    between atoms: _165  and  _167
REMARK   68  A    between atoms: _167  and  _168
REMARK   69  A    between atoms: _167  and  _170
REMARK   70  A    between atoms: _170  and  _171
REMARK   71  A    between atoms: _177  and  _179
REMARK   72  A    between atoms: _179  and  _180
REMARK   73  A    between atoms: _179  and  _182
REMARK   74  A    between atoms: _182  and  _183
REMARK   75  A    between atoms: _193  and  _195
REMARK   76  A    between atoms: _195  and  _196
REMARK   77  A    between atoms: _195  and  _198
REMARK   78  A    between atoms: _201  and  _203
REMARK   79  A    between atoms: _203  and  _204
REMARK   80  A    between atoms: _203  and  _206
REMARK   81  A    between atoms: _206  and  _207
REMARK   82  A    between atoms: _210  and  _212
REMARK   83  A    between atoms: _212  and  _213
REMARK   84  A    between atoms: _215  and  _217
REMARK   85  A    between atoms: _217  and  _218
REMARK   86  A    between atoms: _217  and  _220
REMARK   87  A    between atoms: _220  and  _221
REMARK   88  A    between atoms: _223  and  _225
REMARK   89  A    between atoms: _225  and  _226
REMARK   90  A    between atoms: _225  and  _228
REMARK   91  A    between atoms: _228  and  _229
REMARK   92  A    between atoms: _239  and  _241
REMARK   93  A    between atoms: _241  and  _242
REMARK   94  A    between atoms: _241  and  _244
REMARK   95  A    between atoms: _244  and  _245
REMARK   96  A    between atoms: _247  and  _249
REMARK   97  A    between atoms: _249  and  _250
REMARK   98  A    between atoms: _249  and  _252
REMARK   99  A    between atoms: _252  and  _253
REMARK  100  A    between atoms: _256  and  _258
REMARK  101  A    between atoms: _258  and  _259
REMARK  102  A    between atoms: _262  and  _264
REMARK  103  A    between atoms: _264  and  _265
REMARK  104  A    between atoms: _264  and  _267
REMARK  105  A    between atoms: _267  and  _268
REMARK  106  A    between atoms: _270  and  _272
REMARK  107  A    between atoms: _272  and  _273
REMARK  108  A    between atoms: _272  and  _275
REMARK  109  A    between atoms: _275  and  _276
REMARK  110  A    between atoms: _276  and  _277
REMARK  111  A    between atoms: _281  and  _282
REMARK  112  A    between atoms: _287  and  _289
REMARK  113  A    between atoms: _289  and  _290
REMARK  114  A    between atoms: _289  and  _292
REMARK  115  A    between atoms: _292  and  _293
REMARK  116  A    between atoms: _295  and  _297
REMARK  117  A    between atoms: _297  and  _298
REMARK  118  A    between atoms: _297  and  _300
REMARK  119  A    between atoms: _300  and  _301
REMARK  120  A    between atoms: _301  and  _302
REMARK  121  A    between atoms: _307  and  _309
REMARK  122  A    between atoms: _309  and  _310
REMARK  123  A    between atoms: _309  and  _312
REMARK  124  A    between atoms: _312  and  _313
REMARK  125  A    between atoms: _316  and  _318
REMARK  126  A    between atoms: _318  and  _319
REMARK  127  A    between atoms: _318  and  _321
REMARK  128  A    between atoms: _321  and  _322
REMARK  129  A    between atoms: _325  and  _327
REMARK  130  A    between atoms: _327  and  _328
REMARK  131  A    between atoms: _327  and  _330
REMARK  132  A    between atoms: _330  and  _331
REMARK  133  A    between atoms: _336  and  _337
REMARK  134  A    between atoms: _339  and  _341
REMARK  135  A    between atoms: _341  and  _342
REMARK  136  A    between atoms: _341  and  _344
REMARK  137  A    between atoms: _344  and  _345
REMARK  138  A    between atoms: _351  and  _353
REMARK  139  A    between atoms: _353  and  _354
REMARK  140  A    between atoms: _353  and  _356
REMARK  141  A    between atoms: _356  and  _357
REMARK  142  A    between atoms: _357  and  _358
REMARK                            x       y       z     vdW  Elec       q    Type
REMARK                         _______ _______ _______ _____ _____    ______ ____
ROOT
ATOM      1  O   HOH     1      -4.367  18.428  12.612  0.00  0.00    +0.000 OA
ENDROOT
TORSDOF 0
REMARK  Name = ../refined-set-2016/3dri/3dri_pocket.pdb
REMARK  142 active torsions:
REMARK  status: ('A' for Active; 'I' for Inactive)
REMARK    1  A    between atoms: _1  and  _3
REMARK    2  A    between atoms: _3  and  _4
REMARK    3  A    between atoms: _3  and  _6
REMARK    4  A    between atoms: _6  and  _7
REMARK    5  A    between atoms: _10  and  _12
REMARK    6  A    between atoms: _12  and  _13
REMARK    7  A    between atoms: _12  and  _15
REMARK    8  A    between atoms: _15  and  _16
REMARK    9  A    between atoms: _16  and  _17
REMARK   10  A    between atoms: _17  and  _18
REMARK   11  A    between atoms: _27  and  _29
REMARK   12  A    between atoms: _29  and  _30
REMARK   13  A    between atoms: _29  and  _32
REMARK   14  A    between atoms: _32  and  _33
REMARK   15  A    between atoms: _43  and  _45
REMARK   16  A    between atoms: _45  and  _46
REMARK   17  A    between atoms: _45  and  _48
REMARK   18  A    between atoms: _48  and  _49
REMARK   19  A    between atoms: _52  and  _54
REMARK   20  A    between atoms: _54  and  _55
REMARK   21  A    between atoms: _54  and  _57
REMARK   22  A    between atoms: _57  and  _58
REMARK   23  A    between atoms: _61  and  _63
REMARK   24  A    between atoms: _63  and  _64
REMARK   25  A    between atoms: _63  and  _66
REMARK   26  A    between atoms: _66  and  _67
REMARK   27  A    between atoms: _69  and  _71
REMARK   28  A    between atoms: _71  and  _72
REMARK   29  A    between atoms: _71  and  _74
REMARK   30  A    between atoms: _74  and  _75
REMARK   31  A    between atoms: _78  and  _80
REMARK   32  A    between atoms: _80  and  _81
REMARK   33  A    between atoms: _83  and  _85
REMARK   34  A    between atoms: _85  and  _86
REMARK   35  A    between atoms: _85  and  _88
REMARK   36  A    between atoms: _88  and  _89
REMARK   37  A    between atoms: _94  and  _96
REMARK   38  A    between atoms: _96  and  _97
REMARK   39  A    between atoms: _99  and  _101
REMARK   40  A    between atoms: _101  and  _102
REMARK   41  A    between atoms: _101  and  _104
REMARK   42  A    between atoms: _104  and  _105
REMARK   43  A    between atoms: _105  and  _106
REMARK   44  A    between atoms: _108  and  _110
REMARK   45  A    between atoms: _110  and  _111
REMARK   46  A    between atoms: _110  and  _113
REMARK   47  A    between atoms: _113  and  _114
REMARK   48  A    between atoms: _119  and  _120
REMARK   49  A    between atoms: _122  and  _124
REMARK   50  A    between atoms: _124  and  _125
REMARK   51  A    between atoms: _124  and  _127
REMARK   52  A    between atoms: _127  and  _128
REMARK   53  A    between atoms: _131  and  _133
REMARK   54  A    between atoms: _133  and  _134
REMARK   55  A    between atoms: _133  and  _136
REMARK   56  A    between atoms: _136  and  _137
REMARK   57  A    between atoms: _139  and  _141
REMARK   58  A    between atoms: _141  and  _142
REMARK   59  A    between atoms: _141  and  _144
REMARK   60  A    between atoms: _144  and  _145
REMARK   61  A    between atoms: _148  and  _150
REMARK   62  A    between atoms: _150  and  _151
REMARK   63  A    between atoms: _150  and  _153
REMARK   64  A    between atoms: _153  and  _154
REMARK   65  A    between atoms: _154  and  _155
REMARK   66  A    between atoms: _155  and  _156
REMARK   67  A    between atoms: _165  and  _167
REMARK   68  A    between atoms: _167  and  _168
REMARK   69  A    between atoms: _167  and  _170
REMARK   70  A    between atoms: _170  and  _171
REMARK   71  A    between atoms: _177  and  _179
REMARK   72  A    between atoms: _179  and  _180
REMARK   73  A    between atoms: _179  and  _182
REMARK   74  A    between atoms: _182  and  _183
REMARK   75  A    between atoms: _193  and  _195
REMARK   76  A    between atoms: _195  and  _196
REMARK   77  A    between atoms: _195  and  _198
REMARK   78  A    between atoms: _201  and  _203
REMARK   79  A    between atoms: _203  and  _204
REMARK   80  A    between atoms: _203  and  _206
REMARK   81  A    between atoms: _206  and  _207
REMARK   82  A    between atoms: _210  and  _212
REMARK   83  A    between atoms: _212  and  _213
REMARK   84  A    between atoms: _215  and  _217
REMARK   85  A    between atoms: _217  and  _218
REMARK   86  A    between atoms: _217  and  _220
REMARK   87  A    between atoms: _220  and  _221
REMARK   88  A    between atoms: _223  and  _225
REMARK   89  A    between atoms: _225  and  _226
REMARK   90  A    between atoms: _225  and  _228
REMARK   91  A    between atoms: _228  and  _229
REMARK   92  A    between atoms: _239  and  _241
REMARK   93  A    between atoms: _241  and  _242
REMARK   94  A    between atoms: _241  and  _244
REMARK   95  A    between atoms: _244  and  _245
REMARK   96  A    between atoms: _247  and  _249
REMARK   97  A    between atoms: _249  and  _250
REMARK   98  A    between atoms: _249  and  _252
REMARK   99  A    between atoms: _252  and  _253
REMARK  100  A    between atoms: _256  and  _258
REMARK  101  A    between atoms: _258  and  _259
REMARK  102  A    between atoms: _262  and  _264
REMARK  103  A    between atoms: _264  and  _265
REMARK  104  A    between atoms: _264  and  _267
REMARK  105  A    between atoms: _267  and  _268
REMARK  106  A    between atoms: _270  and  _272
REMARK  107  A    between atoms: _272  and  _273
REMARK  108  A    between atoms: _272  and  _275
REMARK  109  A    between atoms: _275  and  _276
REMARK  110  A    between atoms: _276  and  _277
REMARK  111  A    between atoms: _281  and  _282
REMARK  112  A    between atoms: _287  and  _289
REMARK  113  A    between atoms: _289  and  _290
REMARK  114  A    between atoms: _289  and  _292
REMARK  115  A    between atoms: _292  and  _293
REMARK  116  A    between atoms: _295  and  _297
REMARK  117  A    between atoms: _297  and  _298
REMARK  118  A    between atoms: _297  and  _300
REMARK  119  A    between atoms: _300  and  _301
REMARK  120  A    between atoms: _301  and  _302
REMARK  121  A    between atoms: _307  and  _309
REMARK  122  A    between atoms: _309  and  _310
REMARK  123  A    between atoms: _309  and  _312
REMARK  124  A    between atoms: _312  and  _313
REMARK  125  A    between atoms: _316  and  _318
REMARK  126  A    between atoms: _318  and  _319
REMARK  127  A    between atoms: _318  and  _321
REMARK  128  A    between atoms: _321  and  _322
REMARK  129  A    between atoms: _325  and  _327
REMARK  130  A    between atoms: _327  and  _328
REMARK  131  A    between atoms: _327  and  _330
REMARK  132  A    between atoms: _330  and  _331
REMARK  133  A    between atoms: _336  and  _337
REMARK  134  A    between atoms: _339  and  _341
REMARK  135  A    between atoms: _341  and  _342
REMARK  136  A    between atoms: _341  and  _344
REMARK  137  A    between atoms: _344  and  _345
REMARK  138  A    between atoms: _351  and  _353
REMARK  139  A    between atoms: _353  and  _354
REMARK  140  A    between atoms: _353  and  _356
REMARK  141  A    between atoms: _356  and  _357
REMARK  142  A    between atoms: _357  and  _358
REMARK                            x       y       z     vdW  Elec       q    Type
REMARK                         _______ _______ _______ _____ _____    ______ ____
ROOT
ATOM      1  O   HOH     1      -0.734  17.504  -5.306  0.00  0.00    +0.000 OA
ENDROOT
TORSDOF 0
REMARK  Name = ../refined-set-2016/3dri/3dri_pocket.pdb
REMARK  142 active torsions:
REMARK  status: ('A' for Active; 'I' for Inactive)
REMARK    1  A    between atoms: _1  and  _3
REMARK    2  A    between atoms: _3  and  _4
REMARK    3  A    between atoms: _3  and  _6
REMARK    4  A    between atoms: _6  and  _7
REMARK    5  A    between atoms: _10  and  _12
REMARK    6  A    between atoms: _12  and  _13
REMARK    7  A    between atoms: _12  and  _15
REMARK    8  A    between atoms: _15  and  _16
REMARK    9  A    between atoms: _16  and  _17
REMARK   10  A    between atoms: _17  and  _18
REMARK   11  A    between atoms: _27  and  _29
REMARK   12  A    between atoms: _29  and  _30
REMARK   13  A    between atoms: _29  and  _32
REMARK   14  A    between atoms: _32  and  _33
REMARK   15  A    between atoms: _43  and  _45
REMARK   16  A    between atoms: _45  and  _46
REMARK   17  A    between atoms: _45  and  _48
REMARK   18  A    between atoms: _48  and  _49
REMARK   19  A    between atoms: _52  and  _54
REMARK   20  A    between atoms: _54  and  _55
REMARK   21  A    between atoms: _54  and  _57
REMARK   22  A    between atoms: _57  and  _58
REMARK   23  A    between atoms: _61  and  _63
REMARK   24  A    between atoms: _63  and  _64
REMARK   25  A    between atoms: _63  and  _66
REMARK   26  A    between atoms: _66  and  _67
REMARK   27  A    between atoms: _69  and  _71
REMARK   28  A    between atoms: _71  and  _72
REMARK   29  A    between atoms: _71  and  _74
REMARK   30  A    between atoms: _74  and  _75
REMARK   31  A    between atoms: _78  and  _80
REMARK   32  A    between atoms: _80  and  _81
REMARK   33  A    between atoms: _83  and  _85
REMARK   34  A    between atoms: _85  and  _86
REMARK   35  A    between atoms: _85  and  _88
REMARK   36  A    between atoms: _88  and  _89
REMARK   37  A    between atoms: _94  and  _96
REMARK   38  A    between atoms: _96  and  _97
REMARK   39  A    between atoms: _99  and  _101
REMARK   40  A    between atoms: _101  and  _102
REMARK   41  A    between atoms: _101  and  _104
REMARK   42  A    between atoms: _104  and  _105
REMARK   43  A    between atoms: _105  and  _106
REMARK   44  A    between atoms: _108  and  _110
REMARK   45  A    between atoms: _110  and  _111
REMARK   46  A    between atoms: _110  and  _113
REMARK   47  A    between atoms: _113  and  _114
REMARK   48  A    between atoms: _119  and  _120
REMARK   49  A    between atoms: _122  and  _124
REMARK   50  A    between atoms: _124  and  _125
REMARK   51  A    between atoms: _124  and  _127
REMARK   52  A    between atoms: _127  and  _128
REMARK   53  A    between atoms: _131  and  _133
REMARK   54  A    between atoms: _133  and  _134
REMARK   55  A    between atoms: _133  and  _136
REMARK   56  A    between atoms: _136  and  _137
REMARK   57  A    between atoms: _139  and  _141
REMARK   58  A    between atoms: _141  and  _142
REMARK   59  A    between atoms: _141  and  _144
REMARK   60  A    between atoms: _144  and  _145
REMARK   61  A    between atoms: _148  and  _150
REMARK   62  A    between atoms: _150  and  _151
REMARK   63  A    between atoms: _150  and  _153
REMARK   64  A    between atoms: _153  and  _154
REMARK   65  A    between atoms: _154  and  _155
REMARK   66  A    between atoms: _155  and  _156
REMARK   67  A    between atoms: _165  and  _167
REMARK   68  A    between atoms: _167  and  _168
REMARK   69  A    between atoms: _167  and  _170
REMARK   70  A    between atoms: _170  and  _171
REMARK   71  A    between atoms: _177  and  _179
REMARK   72  A    between atoms: _179  and  _180
REMARK   73  A    between atoms: _179  and  _182
REMARK   74  A    between atoms: _182  and  _183
REMARK   75  A    between atoms: _193  and  _195
REMARK   76  A    between atoms: _195  and  _196
REMARK   77  A    between atoms: _195  and  _198
REMARK   78  A    between atoms: _201  and  _203
REMARK   79  A    between atoms: _203  and  _204
REMARK   80  A    between atoms: _203  and  _206
REMARK   81  A    between atoms: _206  and  _207
REMARK   82  A    between atoms: _210  and  _212
REMARK   83  A    between atoms: _212  and  _213
REMARK   84  A    between atoms: _215  and  _217
REMARK   85  A    between atoms: _217  and  _218
REMARK   86  A    between atoms: _217  and  _220
REMARK   87  A    between atoms: _220  and  _221
REMARK   88  A    between atoms: _223  and  _225
REMARK   89  A    between atoms: _225  and  _226
REMARK   90  A    between atoms: _225  and  _228
REMARK   91  A    between atoms: _228  and  _229
REMARK   92  A    between atoms: _239  and  _241
REMARK   93  A    between atoms: _241  and  _242
REMARK   94  A    between atoms: _241  and  _244
REMARK   95  A    between atoms: _244  and  _245
REMARK   96  A    between atoms: _247  and  _249
REMARK   97  A    between atoms: _249  and  _250
REMARK   98  A    between atoms: _249  and  _252
REMARK   99  A    between atoms: _252  and  _253
REMARK  100  A    between atoms: _256  and  _258
REMARK  101  A    between atoms: _258  and  _259
REMARK  102  A    between atoms: _262  and  _264
REMARK  103  A    between atoms: _264  and  _265
REMARK  104  A    between atoms: _264  and  _267
REMARK  105  A    between atoms: _267  and  _268
REMARK  106  A    between atoms: _270  and  _272
REMARK  107  A    between atoms: _272  and  _273
REMARK  108  A    between atoms: _272  and  _275
REMARK  109  A    between atoms: _275  and  _276
REMARK  110  A    between atoms: _276  and  _277
REMARK  111  A    between atoms: _281  and  _282
REMARK  112  A    between atoms: _287  and  _289
REMARK  113  A    between atoms: _289  and  _290
REMARK  114  A    between atoms: _289  and  _292
REMARK  115  A    between atoms: _292  and  _293
REMARK  116  A    between atoms: _295  and  _297
REMARK  117  A    between atoms: _297  and  _298
REMARK  118  A    between atoms: _297  and  _300
REMARK  119  A    between atoms: _300  and  _301
REMARK  120  A    between atoms: _301  and  _302
REMARK  121  A    between atoms: _307  and  _309
REMARK  122  A    between atoms: _309  and  _310
REMARK  123  A    between atoms: _309  and  _312
REMARK  124  A    between atoms: _312  and  _313
REMARK  125  A    between atoms: _316  and  _318
REMARK  126  A    between atoms: _318  and  _319
REMARK  127  A    between atoms: _318  and  _321
REMARK  128  A    between atoms: _321  and  _322
REMARK  129  A    between atoms: _325  and  _327
REMARK  130  A    between atoms: _327  and  _328
REMARK  131  A    between atoms: _327  and  _330
REMARK  132  A    between atoms: _330  and  _331
REMARK  133  A    between atoms: _336  and  _337
REMARK  134  A    between atoms: _339  and  _341
REMARK  135  A    between atoms: _341  and  _342
REMARK  136  A    between atoms: _341  and  _344
REMARK  137  A    between atoms: _344  and  _345
REMARK  138  A    between atoms: _351  and  _353
REMARK  139  A    between atoms: _353  and  _354
REMARK  140  A    between atoms: _353  and  _356
REMARK  141  A    between atoms: _356  and  _357
REMARK  142  A    between atoms: _357  and  _358
REMARK                            x       y       z     vdW  Elec       q    Type
REMARK                         _______ _______ _______ _____ _____    ______ ____
ROOT
ATOM      1  O   HOH     1      -6.584  18.218   5.030  0.00  0.00    +0.000 OA
ENDROOT
TORSDOF 0
REMARK  Name = ../refined-set-2016/3dri/3dri_pocket.pdb
REMARK  142 active torsions:
REMARK  status: ('A' for Active; 'I' for Inactive)
REMARK    1  A    between atoms: _1  and  _3
REMARK    2  A    between atoms: _3  and  _4
REMARK    3  A    between atoms: _3  and  _6
REMARK    4  A    between atoms: _6  and  _7
REMARK    5  A    between atoms: _10  and  _12
REMARK    6  A    between atoms: _12  and  _13
REMARK    7  A    between atoms: _12  and  _15
REMARK    8  A    between atoms: _15  and  _16
REMARK    9  A    between atoms: _16  and  _17
REMARK   10  A    between atoms: _17  and  _18
REMARK   11  A    between atoms: _27  and  _29
REMARK   12  A    between atoms: _29  and  _30
REMARK   13  A    between atoms: _29  and  _32
REMARK   14  A    between atoms: _32  and  _33
REMARK   15  A    between atoms: _43  and  _45
REMARK   16  A    between atoms: _45  and  _46
REMARK   17  A    between atoms: _45  and  _48
REMARK   18  A    between atoms: _48  and  _49
REMARK   19  A    between atoms: _52  and  _54
REMARK   20  A    between atoms: _54  and  _55
REMARK   21  A    between atoms: _54  and  _57
REMARK   22  A    between atoms: _57  and  _58
REMARK   23  A    between atoms: _61  and  _63
REMARK   24  A    between atoms: _63  and  _64
REMARK   25  A    between atoms: _63  and  _66
REMARK   26  A    between atoms: _66  and  _67
REMARK   27  A    between atoms: _69  and  _71
REMARK   28  A    between atoms: _71  and  _72
REMARK   29  A    between atoms: _71  and  _74
REMARK   30  A    between atoms: _74  and  _75
REMARK   31  A    between atoms: _78  and  _80
REMARK   32  A    between atoms: _80  and  _81
REMARK   33  A    between atoms: _83  and  _85
REMARK   34  A    between atoms: _85  and  _86
REMARK   35  A    between atoms: _85  and  _88
REMARK   36  A    between atoms: _88  and  _89
REMARK   37  A    between atoms: _94  and  _96
REMARK   38  A    between atoms: _96  and  _97
REMARK   39  A    between atoms: _99  and  _101
REMARK   40  A    between atoms: _101  and  _102
REMARK   41  A    between atoms: _101  and  _104
REMARK   42  A    between atoms: _104  and  _105
REMARK   43  A    between atoms: _105  and  _106
REMARK   44  A    between atoms: _108  and  _110
REMARK   45  A    between atoms: _110  and  _111
REMARK   46  A    between atoms: _110  and  _113
REMARK   47  A    between atoms: _113  and  _114
REMARK   48  A    between atoms: _119  and  _120
REMARK   49  A    between atoms: _122  and  _124
REMARK   50  A    between atoms: _124  and  _125
REMARK   51  A    between atoms: _124  and  _127
REMARK   52  A    between atoms: _127  and  _128
REMARK   53  A    between atoms: _131  and  _133
REMARK   54  A    between atoms: _133  and  _134
REMARK   55  A    between atoms: _133  and  _136
REMARK   56  A    between atoms: _136  and  _137
REMARK   57  A    between atoms: _139  and  _141
REMARK   58  A    between atoms: _141  and  _142
REMARK   59  A    between atoms: _141  and  _144
REMARK   60  A    between atoms: _144  and  _145
REMARK   61  A    between atoms: _148  and  _150
REMARK   62  A    between atoms: _150  and  _151
REMARK   63  A    between atoms: _150  and  _153
REMARK   64  A    between atoms: _153  and  _154
REMARK   65  A    between atoms: _154  and  _155
REMARK   66  A    between atoms: _155  and  _156
REMARK   67  A    between atoms: _165  and  _167
REMARK   68  A    between atoms: _167  and  _168
REMARK   69  A    between atoms: _167  and  _170
REMARK   70  A    between atoms: _170  and  _171
REMARK   71  A    between atoms: _177  and  _179
REMARK   72  A    between atoms: _179  and  _180
REMARK   73  A    between atoms: _179  and  _182
REMARK   74  A    between atoms: _182  and  _183
REMARK   75  A    between atoms: _193  and  _195
REMARK   76  A    between atoms: _195  and  _196
REMARK   77  A    between atoms: _195  and  _198
REMARK   78  A    between atoms: _201  and  _203
REMARK   79  A    between atoms: _203  and  _204
REMARK   80  A    between atoms: _203  and  _206
REMARK   81  A    between atoms: _206  and  _207
REMARK   82  A    between atoms: _210  and  _212
REMARK   83  A    between atoms: _212  and  _213
REMARK   84  A    between atoms: _215  and  _217
REMARK   85  A    between atoms: _217  and  _218
REMARK   86  A    between atoms: _217  and  _220
REMARK   87  A    between atoms: _220  and  _221
REMARK   88  A    between atoms: _223  and  _225
REMARK   89  A    between atoms: _225  and  _226
REMARK   90  A    between atoms: _225  and  _228
REMARK   91  A    between atoms: _228  and  _229
REMARK   92  A    between atoms: _239  and  _241
REMARK   93  A    between atoms: _241  and  _242
REMARK   94  A    between atoms: _241  and  _244
REMARK   95  A    between atoms: _244  and  _245
REMARK   96  A    between atoms: _247  and  _249
REMARK   97  A    between atoms: _249  and  _250
REMARK   98  A    between atoms: _249  and  _252
REMARK   99  A    between atoms: _252  and  _253
REMARK  100  A    between atoms: _256  and  _258
REMARK  101  A    between atoms: _258  and  _259
REMARK  102  A    between atoms: _262  and  _264
REMARK  103  A    between atoms: _264  and  _265
REMARK  104  A    between atoms: _264  and  _267
REMARK  105  A    between atoms: _267  and  _268
REMARK  106  A    between atoms: _270  and  _272
REMARK  107  A    between atoms: _272  and  _273
REMARK  108  A    between atoms: _272  and  _275
REMARK  109  A    between atoms: _275  and  _276
REMARK  110  A    between atoms: _276  and  _277
REMARK  111  A    between atoms: _281  and  _282
REMARK  112  A    between atoms: _287  and  _289
REMARK  113  A    between atoms: _289  and  _290
REMARK  114  A    between atoms: _289  and  _292
REMARK  115  A    between atoms: _292  and  _293
REMARK  116  A    between atoms: _295  and  _297
REMARK  117  A    between atoms: _297  and  _298
REMARK  118  A    between atoms: _297  and  _300
REMARK  119  A    between atoms: _300  and  _301
REMARK  120  A    between atoms: _301  and  _302
REMARK  121  A    between atoms: _307  and  _309
REMARK  122  A    between atoms: _309  and  _310
REMARK  123  A    between atoms: _309  and  _312
REMARK  124  A    between atoms: _312  and  _313
REMARK  125  A    between atoms: _316  and  _318
REMARK  126  A    between atoms: _318  and  _319
REMARK  127  A    between atoms: _318  and  _321
REMARK  128  A    between atoms: _321  and  _322
REMARK  129  A    between atoms: _325  and  _327
REMARK  130  A    between atoms: _327  and  _328
REMARK  131  A    between atoms: _327  and  _330
REMARK  132  A    between atoms: _330  and  _331
REMARK  133  A    between atoms: _336  and  _337
REMARK  134  A    between atoms: _339  and  _341
REMARK  135  A    between atoms: _341  and  _342
REMARK  136  A    between atoms: _341  and  _344
REMARK  137  A    between atoms: _344  and  _345
REMARK  138  A    between atoms: _351  and  _353
REMARK  139  A    between atoms: _353  and  _354
REMARK  140  A    between atoms: _353  and  _356
REMARK  141  A    between atoms: _356  and  _357
REMARK  142  A    between atoms: _357  and  _358
REMARK                            x       y       z     vdW  Elec       q    Type
REMARK                         _______ _______ _______ _____ _____    ______ ____
ROOT
ATOM      1  O   HOH     1      -0.820  19.834  -5.832  0.00  0.00    +0.000 OA
ENDROOT
TORSDOF 0
REMARK  Name = ../refined-set-2016/3dri/3dri_pocket.pdb
REMARK  142 active torsions:
REMARK  status: ('A' for Active; 'I' for Inactive)
REMARK    1  A    between atoms: _1  and  _3
REMARK    2  A    between atoms: _3  and  _4
REMARK    3  A    between atoms: _3  and  _6
REMARK    4  A    between atoms: _6  and  _7
REMARK    5  A    between atoms: _10  and  _12
REMARK    6  A    between atoms: _12  and  _13
REMARK    7  A    between atoms: _12  and  _15
REMARK    8  A    between atoms: _15  and  _16
REMARK    9  A    between atoms: _16  and  _17
REMARK   10  A    between atoms: _17  and  _18
REMARK   11  A    between atoms: _27  and  _29
REMARK   12  A    between atoms: _29  and  _30
REMARK   13  A    between atoms: _29  and  _32
REMARK   14  A    between atoms: _32  and  _33
REMARK   15  A    between atoms: _43  and  _45
REMARK   16  A    between atoms: _45  and  _46
REMARK   17  A    between atoms: _45  and  _48
REMARK   18  A    between atoms: _48  and  _49
REMARK   19  A    between atoms: _52  and  _54
REMARK   20  A    between atoms: _54  and  _55
REMARK   21  A    between atoms: _54  and  _57
REMARK   22  A    between atoms: _57  and  _58
REMARK   23  A    between atoms: _61  and  _63
REMARK   24  A    between atoms: _63  and  _64
REMARK   25  A    between atoms: _63  and  _66
REMARK   26  A    between atoms: _66  and  _67
REMARK   27  A    between atoms: _69  and  _71
REMARK   28  A    between atoms: _71  and  _72
REMARK   29  A    between atoms: _71  and  _74
REMARK   30  A    between atoms: _74  and  _75
REMARK   31  A    between atoms: _78  and  _80
REMARK   32  A    between atoms: _80  and  _81
REMARK   33  A    between atoms: _83  and  _85
REMARK   34  A    between atoms: _85  and  _86
REMARK   35  A    between atoms: _85  and  _88
REMARK   36  A    between atoms: _88  and  _89
REMARK   37  A    between atoms: _94  and  _96
REMARK   38  A    between atoms: _96  and  _97
REMARK   39  A    between atoms: _99  and  _101
REMARK   40  A    between atoms: _101  and  _102
REMARK   41  A    between atoms: _101  and  _104
REMARK   42  A    between atoms: _104  and  _105
REMARK   43  A    between atoms: _105  and  _106
REMARK   44  A    between atoms: _108  and  _110
REMARK   45  A    between atoms: _110  and  _111
REMARK   46  A    between atoms: _110  and  _113
REMARK   47  A    between atoms: _113  and  _114
REMARK   48  A    between atoms: _119  and  _120
REMARK   49  A    between atoms: _122  and  _124
REMARK   50  A    between atoms: _124  and  _125
REMARK   51  A    between atoms: _124  and  _127
REMARK   52  A    between atoms: _127  and  _128
REMARK   53  A    between atoms: _131  and  _133
REMARK   54  A    between atoms: _133  and  _134
REMARK   55  A    between atoms: _133  and  _136
REMARK   56  A    between atoms: _136  and  _137
REMARK   57  A    between atoms: _139  and  _141
REMARK   58  A    between atoms: _141  and  _142
REMARK   59  A    between atoms: _141  and  _144
REMARK   60  A    between atoms: _144  and  _145
REMARK   61  A    between atoms: _148  and  _150
REMARK   62  A    between atoms: _150  and  _151
REMARK   63  A    between atoms: _150  and  _153
REMARK   64  A    between atoms: _153  and  _154
REMARK   65  A    between atoms: _154  and  _155
REMARK   66  A    between atoms: _155  and  _156
REMARK   67  A    between atoms: _165  and  _167
REMARK   68  A    between atoms: _167  and  _168
REMARK   69  A    between atoms: _167  and  _170
REMARK   70  A    between atoms: _170  and  _171
REMARK   71  A    between atoms: _177  and  _179
REMARK   72  A    between atoms: _179  and  _180
REMARK   73  A    between atoms: _179  and  _182
REMARK   74  A    between atoms: _182  and  _183
REMARK   75  A    between atoms: _193  and  _195
REMARK   76  A    between atoms: _195  and  _196
REMARK   77  A    between atoms: _195  and  _198
REMARK   78  A    between atoms: _201  and  _203
REMARK   79  A    between atoms: _203  and  _204
REMARK   80  A    between atoms: _203  and  _206
REMARK   81  A    between atoms: _206  and  _207
REMARK   82  A    between atoms: _210  and  _212
REMARK   83  A    between atoms: _212  and  _213
REMARK   84  A    between atoms: _215  and  _217
REMARK   85  A    between atoms: _217  and  _218
REMARK   86  A    between atoms: _217  and  _220
REMARK   87  A    between atoms: _220  and  _221
REMARK   88  A    between atoms: _223  and  _225
REMARK   89  A    between atoms: _225  and  _226
REMARK   90  A    between atoms: _225  and  _228
REMARK   91  A    between atoms: _228  and  _229
REMARK   92  A    between atoms: _239  and  _241
REMARK   93  A    between atoms: _241  and  _242
REMARK   94  A    between atoms: _241  and  _244
REMARK   95  A    between atoms: _244  and  _245
REMARK   96  A    between atoms: _247  and  _249
REMARK   97  A    between atoms: _249  and  _250
REMARK   98  A    between atoms: _249  and  _252
REMARK   99  A    between atoms: _252  and  _253
REMARK  100  A    between atoms: _256  and  _258
REMARK  101  A    between atoms: _258  and  _259
REMARK  102  A    between atoms: _262  and  _264
REMARK  103  A    between atoms: _264  and  _265
REMARK  104  A    between atoms: _264  and  _267
REMARK  105  A    between atoms: _267  and  _268
REMARK  106  A    between atoms: _270  and  _272
REMARK  107  A    between atoms: _272  and  _273
REMARK  108  A    between atoms: _272  and  _275
REMARK  109  A    between atoms: _275  and  _276
REMARK  110  A    between atoms: _276  and  _277
REMARK  111  A    between atoms: _281  and  _282
REMARK  112  A    between atoms: _287  and  _289
REMARK  113  A    between atoms: _289  and  _290
REMARK  114  A    between atoms: _289  and  _292
REMARK  115  A    between atoms: _292  and  _293
REMARK  116  A    between atoms: _295  and  _297
REMARK  117  A    between atoms: _297  and  _298
REMARK  118  A    between atoms: _297  and  _300
REMARK  119  A    between atoms: _300  and  _301
REMARK  120  A    between atoms: _301  and  _302
REMARK  121  A    between atoms: _307  and  _309
REMARK  122  A    between atoms: _309  and  _310
REMARK  123  A    between atoms: _309  and  _312
REMARK  124  A    between atoms: _312  and  _313
REMARK  125  A    between atoms: _316  and  _318
REMARK  126  A    between atoms: _318  and  _319
REMARK  127  A    between atoms: _318  and  _321
REMARK  128  A    between atoms: _321  and  _322
REMARK  129  A    between atoms: _325  and  _327
REMARK  130  A    between atoms: _327  and  _328
REMARK  131  A    between atoms: _327  and  _330
REMARK  132  A    between atoms: _330  and  _331
REMARK  133  A    between atoms: _336  and  _337
REMARK  134  A    between atoms: _339  and  _341
REMARK  135  A    between atoms: _341  and  _342
REMARK  136  A    between atoms: _341  and  _344
REMARK  137  A    between atoms: _344  and  _345
REMARK  138  A    between atoms: _351  and  _353
REMARK  139  A    between atoms: _353  and  _354
REMARK  140  A    between atoms: _353  and  _356
REMARK  141  A    between atoms: _356  and  _357
REMARK  142  A    between atoms: _357  and  _358
REMARK                            x       y       z     vdW  Elec       q    Type
REMARK                         _______ _______ _______ _____ _____    ______ ____
ROOT
ATOM      1  O   HOH     1      -2.983  16.442   2.118  0.00  0.00    +0.000 OA
ENDROOT
TORSDOF 0
REMARK  Name = ../refined-set-2016/3dri/3dri_pocket.pdb
REMARK  142 active torsions:
REMARK  status: ('A' for Active; 'I' for Inactive)
REMARK    1  A    between atoms: _1  and  _3
REMARK    2  A    between atoms: _3  and  _4
REMARK    3  A    between atoms: _3  and  _6
REMARK    4  A    between atoms: _6  and  _7
REMARK    5  A    between atoms: _10  and  _12
REMARK    6  A    between atoms: _12  and  _13
REMARK    7  A    between atoms: _12  and  _15
REMARK    8  A    between atoms: _15  and  _16
REMARK    9  A    between atoms: _16  and  _17
REMARK   10  A    between atoms: _17  and  _18
REMARK   11  A    between atoms: _27  and  _29
REMARK   12  A    between atoms: _29  and  _30
REMARK   13  A    between atoms: _29  and  _32
REMARK   14  A    between atoms: _32  and  _33
REMARK   15  A    between atoms: _43  and  _45
REMARK   16  A    between atoms: _45  and  _46
REMARK   17  A    between atoms: _45  and  _48
REMARK   18  A    between atoms: _48  and  _49
REMARK   19  A    between atoms: _52  and  _54
REMARK   20  A    between atoms: _54  and  _55
REMARK   21  A    between atoms: _54  and  _57
REMARK   22  A    between atoms: _57  and  _58
REMARK   23  A    between atoms: _61  and  _63
REMARK   24  A    between atoms: _63  and  _64
REMARK   25  A    between atoms: _63  and  _66
REMARK   26  A    between atoms: _66  and  _67
REMARK   27  A    between atoms: _69  and  _71
REMARK   28  A    between atoms: _71  and  _72
REMARK   29  A    between atoms: _71  and  _74
REMARK   30  A    between atoms: _74  and  _75
REMARK   31  A    between atoms: _78  and  _80
REMARK   32  A    between atoms: _80  and  _81
REMARK   33  A    between atoms: _83  and  _85
REMARK   34  A    between atoms: _85  and  _86
REMARK   35  A    between atoms: _85  and  _88
REMARK   36  A    between atoms: _88  and  _89
REMARK   37  A    between atoms: _94  and  _96
REMARK   38  A    between atoms: _96  and  _97
REMARK   39  A    between atoms: _99  and  _101
REMARK   40  A    between atoms: _101  and  _102
REMARK   41  A    between atoms: _101  and  _104
REMARK   42  A    between atoms: _104  and  _105
REMARK   43  A    between atoms: _105  and  _106
REMARK   44  A    between atoms: _108  and  _110
REMARK   45  A    between atoms: _110  and  _111
REMARK   46  A    between atoms: _110  and  _113
REMARK   47  A    between atoms: _113  and  _114
REMARK   48  A    between atoms: _119  and  _120
REMARK   49  A    between atoms: _122  and  _124
REMARK   50  A    between atoms: _124  and  _125
REMARK   51  A    between atoms: _124  and  _127
REMARK   52  A    between atoms: _127  and  _128
REMARK   53  A    between atoms: _131  and  _133
REMARK   54  A    between atoms: _133  and  _134
REMARK   55  A    between atoms: _133  and  _136
REMARK   56  A    between atoms: _136  and  _137
REMARK   57  A    between atoms: _139  and  _141
REMARK   58  A    between atoms: _141  and  _142
REMARK   59  A    between atoms: _141  and  _144
REMARK   60  A    between atoms: _144  and  _145
REMARK   61  A    between atoms: _148  and  _150
REMARK   62  A    between atoms: _150  and  _151
REMARK   63  A    between atoms: _150  and  _153
REMARK   64  A    between atoms: _153  and  _154
REMARK   65  A    between atoms: _154  and  _155
REMARK   66  A    between atoms: _155  and  _156
REMARK   67  A    between atoms: _165  and  _167
REMARK   68  A    between atoms: _167  and  _168
REMARK   69  A    between atoms: _167  and  _170
REMARK   70  A    between atoms: _170  and  _171
REMARK   71  A    between atoms: _177  and  _179
REMARK   72  A    between atoms: _179  and  _180
REMARK   73  A    between atoms: _179  and  _182
REMARK   74  A    between atoms: _182  and  _183
REMARK   75  A    between atoms: _193  and  _195
REMARK   76  A    between atoms: _195  and  _196
REMARK   77  A    between atoms: _195  and  _198
REMARK   78  A    between atoms: _201  and  _203
REMARK   79  A    between atoms: _203  and  _204
REMARK   80  A    between atoms: _203  and  _206
REMARK   81  A    between atoms: _206  and  _207
REMARK   82  A    between atoms: _210  and  _212
REMARK   83  A    between atoms: _212  and  _213
REMARK   84  A    between atoms: _215  and  _217
REMARK   85  A    between atoms: _217  and  _218
REMARK   86  A    between atoms: _217  and  _220
REMARK   87  A    between atoms: _220  and  _221
REMARK   88  A    between atoms: _223  and  _225
REMARK   89  A    between atoms: _225  and  _226
REMARK   90  A    between atoms: _225  and  _228
REMARK   91  A    between atoms: _228  and  _229
REMARK   92  A    between atoms: _239  and  _241
REMARK   93  A    between atoms: _241  and  _242
REMARK   94  A    between atoms: _241  and  _244
REMARK   95  A    between atoms: _244  and  _245
REMARK   96  A    between atoms: _247  and  _249
REMARK   97  A    between atoms: _249  and  _250
REMARK   98  A    between atoms: _249  and  _252
REMARK   99  A    between atoms: _252  and  _253
REMARK  100  A    between atoms: _256  and  _258
REMARK  101  A    between atoms: _258  and  _259
REMARK  102  A    between atoms: _262  and  _264
REMARK  103  A    between atoms: _264  and  _265
REMARK  104  A    between atoms: _264  and  _267
REMARK  105  A    between atoms: _267  and  _268
REMARK  106  A    between atoms: _270  and  _272
REMARK  107  A    between atoms: _272  and  _273
REMARK  108  A    between atoms: _272  and  _275
REMARK  109  A    between atoms: _275  and  _276
REMARK  110  A    between atoms: _276  and  _277
REMARK  111  A    between atoms: _281  and  _282
REMARK  112  A    between atoms: _287  and  _289
REMARK  113  A    between atoms: _289  and  _290
REMARK  114  A    between atoms: _289  and  _292
REMARK  115  A    between atoms: _292  and  _293
REMARK  116  A    between atoms: _295  and  _297
REMARK  117  A    between atoms: _297  and  _298
REMARK  118  A    between atoms: _297  and  _300
REMARK  119  A    between atoms: _300  and  _301
REMARK  120  A    between atoms: _301  and  _302
REMARK  121  A    between atoms: _307  and  _309
REMARK  122  A    between atoms: _309  and  _310
REMARK  123  A    between atoms: _309  and  _312
REMARK  124  A    between atoms: _312  and  _313
REMARK  125  A    between atoms: _316  and  _318
REMARK  126  A    between atoms: _318  and  _319
REMARK  127  A    between atoms: _318  and  _321
REMARK  128  A    between atoms: _321  and  _322
REMARK  129  A    between atoms: _325  and  _327
REMARK  130  A    between atoms: _327  and  _328
REMARK  131  A    between atoms: _327  and  _330
REMARK  132  A    between atoms: _330  and  _331
REMARK  133  A    between atoms: _336  and  _337
REMARK  134  A    between atoms: _339  and  _341
REMARK  135  A    between atoms: _341  and  _342
REMARK  136  A    between atoms: _341  and  _344
REMARK  137  A    between atoms: _344  and  _345
REMARK  138  A    between atoms: _351  and  _353
REMARK  139  A    between atoms: _353  and  _354
REMARK  140  A    between atoms: _353  and  _356
REMARK  141  A    between atoms: _356  and  _357
REMARK  142  A    between atoms: _357  and  _358
REMARK                            x       y       z     vdW  Elec       q    Type
REMARK                         _______ _______ _______ _____ _____    ______ ____
ROOT
ATOM      1  O   HOH     1       0.397  23.460  -1.617  0.00  0.00    +0.000 OA
ENDROOT
TORSDOF 0
REMARK  Name = ../refined-set-2016/3dri/3dri_pocket.pdb
REMARK  142 active torsions:
REMARK  status: ('A' for Active; 'I' for Inactive)
REMARK    1  A    between atoms: _1  and  _3
REMARK    2  A    between atoms: _3  and  _4
REMARK    3  A    between atoms: _3  and  _6
REMARK    4  A    between atoms: _6  and  _7
REMARK    5  A    between atoms: _10  and  _12
REMARK    6  A    between atoms: _12  and  _13
REMARK    7  A    between atoms: _12  and  _15
REMARK    8  A    between atoms: _15  and  _16
REMARK    9  A    between atoms: _16  and  _17
REMARK   10  A    between atoms: _17  and  _18
REMARK   11  A    between atoms: _27  and  _29
REMARK   12  A    between atoms: _29  and  _30
REMARK   13  A    between atoms: _29  and  _32
REMARK   14  A    between atoms: _32  and  _33
REMARK   15  A    between atoms: _43  and  _45
REMARK   16  A    between atoms: _45  and  _46
REMARK   17  A    between atoms: _45  and  _48
REMARK   18  A    between atoms: _48  and  _49
REMARK   19  A    between atoms: _52  and  _54
REMARK   20  A    between atoms: _54  and  _55
REMARK   21  A    between atoms: _54  and  _57
REMARK   22  A    between atoms: _57  and  _58
REMARK   23  A    between atoms: _61  and  _63
REMARK   24  A    between atoms: _63  and  _64
REMARK   25  A    between atoms: _63  and  _66
REMARK   26  A    between atoms: _66  and  _67
REMARK   27  A    between atoms: _69  and  _71
REMARK   28  A    between atoms: _71  and  _72
REMARK   29  A    between atoms: _71  and  _74
REMARK   30  A    between atoms: _74  and  _75
REMARK   31  A    between atoms: _78  and  _80
REMARK   32  A    between atoms: _80  and  _81
REMARK   33  A    between atoms: _83  and  _85
REMARK   34  A    between atoms: _85  and  _86
REMARK   35  A    between atoms: _85  and  _88
REMARK   36  A    between atoms: _88  and  _89
REMARK   37  A    between atoms: _94  and  _96
REMARK   38  A    between atoms: _96  and  _97
REMARK   39  A    between atoms: _99  and  _101
REMARK   40  A    between atoms: _101  and  _102
REMARK   41  A    between atoms: _101  and  _104
REMARK   42  A    between atoms: _104  and  _105
REMARK   43  A    between atoms: _105  and  _106
REMARK   44  A    between atoms: _108  and  _110
REMARK   45  A    between atoms: _110  and  _111
REMARK   46  A    between atoms: _110  and  _113
REMARK   47  A    between atoms: _113  and  _114
REMARK   48  A    between atoms: _119  and  _120
REMARK   49  A    between atoms: _122  and  _124
REMARK   50  A    between atoms: _124  and  _125
REMARK   51  A    between atoms: _124  and  _127
REMARK   52  A    between atoms: _127  and  _128
REMARK   53  A    between atoms: _131  and  _133
REMARK   54  A    between atoms: _133  and  _134
REMARK   55  A    between atoms: _133  and  _136
REMARK   56  A    between atoms: _136  and  _137
REMARK   57  A    between atoms: _139  and  _141
REMARK   58  A    between atoms: _141  and  _142
REMARK   59  A    between atoms: _141  and  _144
REMARK   60  A    between atoms: _144  and  _145
REMARK   61  A    between atoms: _148  and  _150
REMARK   62  A    between atoms: _150  and  _151
REMARK   63  A    between atoms: _150  and  _153
REMARK   64  A    between atoms: _153  and  _154
REMARK   65  A    between atoms: _154  and  _155
REMARK   66  A    between atoms: _155  and  _156
REMARK   67  A    between atoms: _165  and  _167
REMARK   68  A    between atoms: _167  and  _168
REMARK   69  A    between atoms: _167  and  _170
REMARK   70  A    between atoms: _170  and  _171
REMARK   71  A    between atoms: _177  and  _179
REMARK   72  A    between atoms: _179  and  _180
REMARK   73  A    between atoms: _179  and  _182
REMARK   74  A    between atoms: _182  and  _183
REMARK   75  A    between atoms: _193  and  _195
REMARK   76  A    between atoms: _195  and  _196
REMARK   77  A    between atoms: _195  and  _198
REMARK   78  A    between atoms: _201  and  _203
REMARK   79  A    between atoms: _203  and  _204
REMARK   80  A    between atoms: _203  and  _206
REMARK   81  A    between atoms: _206  and  _207
REMARK   82  A    between atoms: _210  and  _212
REMARK   83  A    between atoms: _212  and  _213
REMARK   84  A    between atoms: _215  and  _217
REMARK   85  A    between atoms: _217  and  _218
REMARK   86  A    between atoms: _217  and  _220
REMARK   87  A    between atoms: _220  and  _221
REMARK   88  A    between atoms: _223  and  _225
REMARK   89  A    between atoms: _225  and  _226
REMARK   90  A    between atoms: _225  and  _228
REMARK   91  A    between atoms: _228  and  _229
REMARK   92  A    between atoms: _239  and  _241
REMARK   93  A    between atoms: _241  and  _242
REMARK   94  A    between atoms: _241  and  _244
REMARK   95  A    between atoms: _244  and  _245
REMARK   96  A    between atoms: _247  and  _249
REMARK   97  A    between atoms: _249  and  _250
REMARK   98  A    between atoms: _249  and  _252
REMARK   99  A    between atoms: _252  and  _253
REMARK  100  A    between atoms: _256  and  _258
REMARK  101  A    between atoms: _258  and  _259
REMARK  102  A    between atoms: _262  and  _264
REMARK  103  A    between atoms: _264  and  _265
REMARK  104  A    between atoms: _264  and  _267
REMARK  105  A    between atoms: _267  and  _268
REMARK  106  A    between atoms: _270  and  _272
REMARK  107  A    between atoms: _272  and  _273
REMARK  108  A    between atoms: _272  and  _275
REMARK  109  A    between atoms: _275  and  _276
REMARK  110  A    between atoms: _276  and  _277
REMARK  111  A    between atoms: _281  and  _282
REMARK  112  A    between atoms: _287  and  _289
REMARK  113  A    between atoms: _289  and  _290
REMARK  114  A    between atoms: _289  and  _292
REMARK  115  A    between atoms: _292  and  _293
REMARK  116  A    between atoms: _295  and  _297
REMARK  117  A    between atoms: _297  and  _298
REMARK  118  A    between atoms: _297  and  _300
REMARK  119  A    between atoms: _300  and  _301
REMARK  120  A    between atoms: _301  and  _302
REMARK  121  A    between atoms: _307  and  _309
REMARK  122  A    between atoms: _309  and  _310
REMARK  123  A    between atoms: _309  and  _312
REMARK  124  A    between atoms: _312  and  _313
REMARK  125  A    between atoms: _316  and  _318
REMARK  126  A    between atoms: _318  and  _319
REMARK  127  A    between atoms: _318  and  _321
REMARK  128  A    between atoms: _321  and  _322
REMARK  129  A    between atoms: _325  and  _327
REMARK  130  A    between atoms: _327  and  _328
REMARK  131  A    between atoms: _327  and  _330
REMARK  132  A    between atoms: _330  and  _331
REMARK  133  A    between atoms: _336  and  _337
REMARK  134  A    between atoms: _339  and  _341
REMARK  135  A    between atoms: _341  and  _342
REMARK  136  A    between atoms: _341  and  _344
REMARK  137  A    between atoms: _344  and  _345
REMARK  138  A    between atoms: _351  and  _353
REMARK  139  A    between atoms: _353  and  _354
REMARK  140  A    between atoms: _353  and  _356
REMARK  141  A    between atoms: _356  and  _357
REMARK  142  A    between atoms: _357  and  _358
REMARK                            x       y       z     vdW  Elec       q    Type
REMARK                         _______ _______ _______ _____ _____    ______ ____
ROOT
ATOM      1  O   HOH     1      -6.117  15.629   6.553  0.00  0.00    +0.000 OA
ENDROOT
TORSDOF 0
REMARK  Name = ../refined-set-2016/3dri/3dri_pocket.pdb
REMARK  142 active torsions:
REMARK  status: ('A' for Active; 'I' for Inactive)
REMARK    1  A    between atoms: _1  and  _3
REMARK    2  A    between atoms: _3  and  _4
REMARK    3  A    between atoms: _3  and  _6
REMARK    4  A    between atoms: _6  and  _7
REMARK    5  A    between atoms: _10  and  _12
REMARK    6  A    between atoms: _12  and  _13
REMARK    7  A    between atoms: _12  and  _15
REMARK    8  A    between atoms: _15  and  _16
REMARK    9  A    between atoms: _16  and  _17
REMARK   10  A    between atoms: _17  and  _18
REMARK   11  A    between atoms: _27  and  _29
REMARK   12  A    between atoms: _29  and  _30
REMARK   13  A    between atoms: _29  and  _32
REMARK   14  A    between atoms: _32  and  _33
REMARK   15  A    between atoms: _43  and  _45
REMARK   16  A    between atoms: _45  and  _46
REMARK   17  A    between atoms: _45  and  _48
REMARK   18  A    between atoms: _48  and  _49
REMARK   19  A    between atoms: _52  and  _54
REMARK   20  A    between atoms: _54  and  _55
REMARK   21  A    between atoms: _54  and  _57
REMARK   22  A    between atoms: _57  and  _58
REMARK   23  A    between atoms: _61  and  _63
REMARK   24  A    between atoms: _63  and  _64
REMARK   25  A    between atoms: _63  and  _66
REMARK   26  A    between atoms: _66  and  _67
REMARK   27  A    between atoms: _69  and  _71
REMARK   28  A    between atoms: _71  and  _72
REMARK   29  A    between atoms: _71  and  _74
REMARK   30  A    between atoms: _74  and  _75
REMARK   31  A    between atoms: _78  and  _80
REMARK   32  A    between atoms: _80  and  _81
REMARK   33  A    between atoms: _83  and  _85
REMARK   34  A    between atoms: _85  and  _86
REMARK   35  A    between atoms: _85  and  _88
REMARK   36  A    between atoms: _88  and  _89
REMARK   37  A    between atoms: _94  and  _96
REMARK   38  A    between atoms: _96  and  _97
REMARK   39  A    between atoms: _99  and  _101
REMARK   40  A    between atoms: _101  and  _102
REMARK   41  A    between atoms: _101  and  _104
REMARK   42  A    between atoms: _104  and  _105
REMARK   43  A    between atoms: _105  and  _106
REMARK   44  A    between atoms: _108  and  _110
REMARK   45  A    between atoms: _110  and  _111
REMARK   46  A    between atoms: _110  and  _113
REMARK   47  A    between atoms: _113  and  _114
REMARK   48  A    between atoms: _119  and  _120
REMARK   49  A    between atoms: _122  and  _124
REMARK   50  A    between atoms: _124  and  _125
REMARK   51  A    between atoms: _124  and  _127
REMARK   52  A    between atoms: _127  and  _128
REMARK   53  A    between atoms: _131  and  _133
REMARK   54  A    between atoms: _133  and  _134
REMARK   55  A    between atoms: _133  and  _136
REMARK   56  A    between atoms: _136  and  _137
REMARK   57  A    between atoms: _139  and  _141
REMARK   58  A    between atoms: _141  and  _142
REMARK   59  A    between atoms: _141  and  _144
REMARK   60  A    between atoms: _144  and  _145
REMARK   61  A    between atoms: _148  and  _150
REMARK   62  A    between atoms: _150  and  _151
REMARK   63  A    between atoms: _150  and  _153
REMARK   64  A    between atoms: _153  and  _154
REMARK   65  A    between atoms: _154  and  _155
REMARK   66  A    between atoms: _155  and  _156
REMARK   67  A    between atoms: _165  and  _167
REMARK   68  A    between atoms: _167  and  _168
REMARK   69  A    between atoms: _167  and  _170
REMARK   70  A    between atoms: _170  and  _171
REMARK   71  A    between atoms: _177  and  _179
REMARK   72  A    between atoms: _179  and  _180
REMARK   73  A    between atoms: _179  and  _182
REMARK   74  A    between atoms: _182  and  _183
REMARK   75  A    between atoms: _193  and  _195
REMARK   76  A    between atoms: _195  and  _196
REMARK   77  A    between atoms: _195  and  _198
REMARK   78  A    between atoms: _201  and  _203
REMARK   79  A    between atoms: _203  and  _204
REMARK   80  A    between atoms: _203  and  _206
REMARK   81  A    between atoms: _206  and  _207
REMARK   82  A    between atoms: _210  and  _212
REMARK   83  A    between atoms: _212  and  _213
REMARK   84  A    between atoms: _215  and  _217
REMARK   85  A    between atoms: _217  and  _218
REMARK   86  A    between atoms: _217  and  _220
REMARK   87  A    between atoms: _220  and  _221
REMARK   88  A    between atoms: _223  and  _225
REMARK   89  A    between atoms: _225  and  _226
REMARK   90  A    between atoms: _225  and  _228
REMARK   91  A    between atoms: _228  and  _229
REMARK   92  A    between atoms: _239  and  _241
REMARK   93  A    between atoms: _241  and  _242
REMARK   94  A    between atoms: _241  and  _244
REMARK   95  A    between atoms: _244  and  _245
REMARK   96  A    between atoms: _247  and  _249
REMARK   97  A    between atoms: _249  and  _250
REMARK   98  A    between atoms: _249  and  _252
REMARK   99  A    between atoms: _252  and  _253
REMARK  100  A    between atoms: _256  and  _258
REMARK  101  A    between atoms: _258  and  _259
REMARK  102  A    between atoms: _262  and  _264
REMARK  103  A    between atoms: _264  and  _265
REMARK  104  A    between atoms: _264  and  _267
REMARK  105  A    between atoms: _267  and  _268
REMARK  106  A    between atoms: _270  and  _272
REMARK  107  A    between atoms: _272  and  _273
REMARK  108  A    between atoms: _272  and  _275
REMARK  109  A    between atoms: _275  and  _276
REMARK  110  A    between atoms: _276  and  _277
REMARK  111  A    between atoms: _281  and  _282
REMARK  112  A    between atoms: _287  and  _289
REMARK  113  A    between atoms: _289  and  _290
REMARK  114  A    between atoms: _289  and  _292
REMARK  115  A    between atoms: _292  and  _293
REMARK  116  A    between atoms: _295  and  _297
REMARK  117  A    between atoms: _297  and  _298
REMARK  118  A    between atoms: _297  and  _300
REMARK  119  A    between atoms: _300  and  _301
REMARK  120  A    between atoms: _301  and  _302
REMARK  121  A    between atoms: _307  and  _309
REMARK  122  A    between atoms: _309  and  _310
REMARK  123  A    between atoms: _309  and  _312
REMARK  124  A    between atoms: _312  and  _313
REMARK  125  A    between atoms: _316  and  _318
REMARK  126  A    between atoms: _318  and  _319
REMARK  127  A    between atoms: _318  and  _321
REMARK  128  A    between atoms: _321  and  _322
REMARK  129  A    between atoms: _325  and  _327
REMARK  130  A    between atoms: _327  and  _328
REMARK  131  A    between atoms: _327  and  _330
REMARK  132  A    between atoms: _330  and  _331
REMARK  133  A    between atoms: _336  and  _337
REMARK  134  A    between atoms: _339  and  _341
REMARK  135  A    between atoms: _341  and  _342
REMARK  136  A    between atoms: _341  and  _344
REMARK  137  A    between atoms: _344  and  _345
REMARK  138  A    between atoms: _351  and  _353
REMARK  139  A    between atoms: _353  and  _354
REMARK  140  A    between atoms: _353  and  _356
REMARK  141  A    between atoms: _356  and  _357
REMARK  142  A    between atoms: _357  and  _358
REMARK                            x       y       z     vdW  Elec       q    Type
REMARK                         _______ _______ _______ _____ _____    ______ ____
ROOT
ATOM      1  O   HOH     1      -8.196  16.248   8.048  0.00  0.00    +0.000 OA
ENDROOT
TORSDOF 0
REMARK  Name = ../refined-set-2016/3dri/3dri_pocket.pdb
REMARK  142 active torsions:
REMARK  status: ('A' for Active; 'I' for Inactive)
REMARK    1  A    between atoms: _1  and  _3
REMARK    2  A    between atoms: _3  and  _4
REMARK    3  A    between atoms: _3  and  _6
REMARK    4  A    between atoms: _6  and  _7
REMARK    5  A    between atoms: _10  and  _12
REMARK    6  A    between atoms: _12  and  _13
REMARK    7  A    between atoms: _12  and  _15
REMARK    8  A    between atoms: _15  and  _16
REMARK    9  A    between atoms: _16  and  _17
REMARK   10  A    between atoms: _17  and  _18
REMARK   11  A    between atoms: _27  and  _29
REMARK   12  A    between atoms: _29  and  _30
REMARK   13  A    between atoms: _29  and  _32
REMARK   14  A    between atoms: _32  and  _33
REMARK   15  A    between atoms: _43  and  _45
REMARK   16  A    between atoms: _45  and  _46
REMARK   17  A    between atoms: _45  and  _48
REMARK   18  A    between atoms: _48  and  _49
REMARK   19  A    between atoms: _52  and  _54
REMARK   20  A    between atoms: _54  and  _55
REMARK   21  A    between atoms: _54  and  _57
REMARK   22  A    between atoms: _57  and  _58
REMARK   23  A    between atoms: _61  and  _63
REMARK   24  A    between atoms: _63  and  _64
REMARK   25  A    between atoms: _63  and  _66
REMARK   26  A    between atoms: _66  and  _67
REMARK   27  A    between atoms: _69  and  _71
REMARK   28  A    between atoms: _71  and  _72
REMARK   29  A    between atoms: _71  and  _74
REMARK   30  A    between atoms: _74  and  _75
REMARK   31  A    between atoms: _78  and  _80
REMARK   32  A    between atoms: _80  and  _81
REMARK   33  A    between atoms: _83  and  _85
REMARK   34  A    between atoms: _85  and  _86
REMARK   35  A    between atoms: _85  and  _88
REMARK   36  A    between atoms: _88  and  _89
REMARK   37  A    between atoms: _94  and  _96
REMARK   38  A    between atoms: _96  and  _97
REMARK   39  A    between atoms: _99  and  _101
REMARK   40  A    between atoms: _101  and  _102
REMARK   41  A    between atoms: _101  and  _104
REMARK   42  A    between atoms: _104  and  _105
REMARK   43  A    between atoms: _105  and  _106
REMARK   44  A    between atoms: _108  and  _110
REMARK   45  A    between atoms: _110  and  _111
REMARK   46  A    between atoms: _110  and  _113
REMARK   47  A    between atoms: _113  and  _114
REMARK   48  A    between atoms: _119  and  _120
REMARK   49  A    between atoms: _122  and  _124
REMARK   50  A    between atoms: _124  and  _125
REMARK   51  A    between atoms: _124  and  _127
REMARK   52  A    between atoms: _127  and  _128
REMARK   53  A    between atoms: _131  and  _133
REMARK   54  A    between atoms: _133  and  _134
REMARK   55  A    between atoms: _133  and  _136
REMARK   56  A    between atoms: _136  and  _137
REMARK   57  A    between atoms: _139  and  _141
REMARK   58  A    between atoms: _141  and  _142
REMARK   59  A    between atoms: _141  and  _144
REMARK   60  A    between atoms: _144  and  _145
REMARK   61  A    between atoms: _148  and  _150
REMARK   62  A    between atoms: _150  and  _151
REMARK   63  A    between atoms: _150  and  _153
REMARK   64  A    between atoms: _153  and  _154
REMARK   65  A    between atoms: _154  and  _155
REMARK   66  A    between atoms: _155  and  _156
REMARK   67  A    between atoms: _165  and  _167
REMARK   68  A    between atoms: _167  and  _168
REMARK   69  A    between atoms: _167  and  _170
REMARK   70  A    between atoms: _170  and  _171
REMARK   71  A    between atoms: _177  and  _179
REMARK   72  A    between atoms: _179  and  _180
REMARK   73  A    between atoms: _179  and  _182
REMARK   74  A    between atoms: _182  and  _183
REMARK   75  A    between atoms: _193  and  _195
REMARK   76  A    between atoms: _195  and  _196
REMARK   77  A    between atoms: _195  and  _198
REMARK   78  A    between atoms: _201  and  _203
REMARK   79  A    between atoms: _203  and  _204
REMARK   80  A    between atoms: _203  and  _206
REMARK   81  A    between atoms: _206  and  _207
REMARK   82  A    between atoms: _210  and  _212
REMARK   83  A    between atoms: _212  and  _213
REMARK   84  A    between atoms: _215  and  _217
REMARK   85  A    between atoms: _217  and  _218
REMARK   86  A    between atoms: _217  and  _220
REMARK   87  A    between atoms: _220  and  _221
REMARK   88  A    between atoms: _223  and  _225
REMARK   89  A    between atoms: _225  and  _226
REMARK   90  A    between atoms: _225  and  _228
REMARK   91  A    between atoms: _228  and  _229
REMARK   92  A    between atoms: _239  and  _241
REMARK   93  A    between atoms: _241  and  _242
REMARK   94  A    between atoms: _241  and  _244
REMARK   95  A    between atoms: _244  and  _245
REMARK   96  A    between atoms: _247  and  _249
REMARK   97  A    between atoms: _249  and  _250
REMARK   98  A    between atoms: _249  and  _252
REMARK   99  A    between atoms: _252  and  _253
REMARK  100  A    between atoms: _256  and  _258
REMARK  101  A    between atoms: _258  and  _259
REMARK  102  A    between atoms: _262  and  _264
REMARK  103  A    between atoms: _264  and  _265
REMARK  104  A    between atoms: _264  and  _267
REMARK  105  A    between atoms: _267  and  _268
REMARK  106  A    between atoms: _270  and  _272
REMARK  107  A    between atoms: _272  and  _273
REMARK  108  A    between atoms: _272  and  _275
REMARK  109  A    between atoms: _275  and  _276
REMARK  110  A    between atoms: _276  and  _277
REMARK  111  A    between atoms: _281  and  _282
REMARK  112  A    between atoms: _287  and  _289
REMARK  113  A    between atoms: _289  and  _290
REMARK  114  A    between atoms: _289  and  _292
REMARK  115  A    between atoms: _292  and  _293
REMARK  116  A    between atoms: _295  and  _297
REMARK  117  A    between atoms: _297  and  _298
REMARK  118  A    between atoms: _297  and  _300
REMARK  119  A    between atoms: _300  and  _301
REMARK  120  A    between atoms: _301  and  _302
REMARK  121  A    between atoms: _307  and  _309
REMARK  122  A    between atoms: _309  and  _310
REMARK  123  A    between atoms: _309  and  _312
REMARK  124  A    between atoms: _312  and  _313
REMARK  125  A    between atoms: _316  and  _318
REMARK  126  A    between atoms: _318  and  _319
REMARK  127  A    between atoms: _318  and  _321
REMARK  128  A    between atoms: _321  and  _322
REMARK  129  A    between atoms: _325  and  _327
REMARK  130  A    between atoms: _327  and  _328
REMARK  131  A    between atoms: _327  and  _330
REMARK  132  A    between atoms: _330  and  _331
REMARK  133  A    between atoms: _336  and  _337
REMARK  134  A    between atoms: _339  and  _341
REMARK  135  A    between atoms: _341  and  _342
REMARK  136  A    between atoms: _341  and  _344
REMARK  137  A    between atoms: _344  and  _345
REMARK  138  A    between atoms: _351  and  _353
REMARK  139  A    between atoms: _353  and  _354
REMARK  140  A    between atoms: _353  and  _356
REMARK  141  A    between atoms: _356  and  _357
REMARK  142  A    between atoms: _357  and  _358
REMARK                            x       y       z     vdW  Elec       q    Type
REMARK                         _______ _______ _______ _____ _____    ______ ____
ROOT
ATOM      1  O   HOH     1      -1.201  22.426  -0.061  0.00  0.00    +0.000 OA
ENDROOT
TORSDOF 0
REMARK  Name = ../refined-set-2016/3dri/3dri_pocket.pdb
REMARK  142 active torsions:
REMARK  status: ('A' for Active; 'I' for Inactive)
REMARK    1  A    between atoms: _1  and  _3
REMARK    2  A    between atoms: _3  and  _4
REMARK    3  A    between atoms: _3  and  _6
REMARK    4  A    between atoms: _6  and  _7
REMARK    5  A    between atoms: _10  and  _12
REMARK    6  A    between atoms: _12  and  _13
REMARK    7  A    between atoms: _12  and  _15
REMARK    8  A    between atoms: _15  and  _16
REMARK    9  A    between atoms: _16  and  _17
REMARK   10  A    between atoms: _17  and  _18
REMARK   11  A    between atoms: _27  and  _29
REMARK   12  A    between atoms: _29  and  _30
REMARK   13  A    between atoms: _29  and  _32
REMARK   14  A    between atoms: _32  and  _33
REMARK   15  A    between atoms: _43  and  _45
REMARK   16  A    between atoms: _45  and  _46
REMARK   17  A    between atoms: _45  and  _48
REMARK   18  A    between atoms: _48  and  _49
REMARK   19  A    between atoms: _52  and  _54
REMARK   20  A    between atoms: _54  and  _55
REMARK   21  A    between atoms: _54  and  _57
REMARK   22  A    between atoms: _57  and  _58
REMARK   23  A    between atoms: _61  and  _63
REMARK   24  A    between atoms: _63  and  _64
REMARK   25  A    between atoms: _63  and  _66
REMARK   26  A    between atoms: _66  and  _67
REMARK   27  A    between atoms: _69  and  _71
REMARK   28  A    between atoms: _71  and  _72
REMARK   29  A    between atoms: _71  and  _74
REMARK   30  A    between atoms: _74  and  _75
REMARK   31  A    between atoms: _78  and  _80
REMARK   32  A    between atoms: _80  and  _81
REMARK   33  A    between atoms: _83  and  _85
REMARK   34  A    between atoms: _85  and  _86
REMARK   35  A    between atoms: _85  and  _88
REMARK   36  A    between atoms: _88  and  _89
REMARK   37  A    between atoms: _94  and  _96
REMARK   38  A    between atoms: _96  and  _97
REMARK   39  A    between atoms: _99  and  _101
REMARK   40  A    between atoms: _101  and  _102
REMARK   41  A    between atoms: _101  and  _104
REMARK   42  A    between atoms: _104  and  _105
REMARK   43  A    between atoms: _105  and  _106
REMARK   44  A    between atoms: _108  and  _110
REMARK   45  A    between atoms: _110  and  _111
REMARK   46  A    between atoms: _110  and  _113
REMARK   47  A    between atoms: _113  and  _114
REMARK   48  A    between atoms: _119  and  _120
REMARK   49  A    between atoms: _122  and  _124
REMARK   50  A    between atoms: _124  and  _125
REMARK   51  A    between atoms: _124  and  _127
REMARK   52  A    between atoms: _127  and  _128
REMARK   53  A    between atoms: _131  and  _133
REMARK   54  A    between atoms: _133  and  _134
REMARK   55  A    between atoms: _133  and  _136
REMARK   56  A    between atoms: _136  and  _137
REMARK   57  A    between atoms: _139  and  _141
REMARK   58  A    between atoms: _141  and  _142
REMARK   59  A    between atoms: _141  and  _144
REMARK   60  A    between atoms: _144  and  _145
REMARK   61  A    between atoms: _148  and  _150
REMARK   62  A    between atoms: _150  and  _151
REMARK   63  A    between atoms: _150  and  _153
REMARK   64  A    between atoms: _153  and  _154
REMARK   65  A    between atoms: _154  and  _155
REMARK   66  A    between atoms: _155  and  _156
REMARK   67  A    between atoms: _165  and  _167
REMARK   68  A    between atoms: _167  and  _168
REMARK   69  A    between atoms: _167  and  _170
REMARK   70  A    between atoms: _170  and  _171
REMARK   71  A    between atoms: _177  and  _179
REMARK   72  A    between atoms: _179  and  _180
REMARK   73  A    between atoms: _179  and  _182
REMARK   74  A    between atoms: _182  and  _183
REMARK   75  A    between atoms: _193  and  _195
REMARK   76  A    between atoms: _195  and  _196
REMARK   77  A    between atoms: _195  and  _198
REMARK   78  A    between atoms: _201  and  _203
REMARK   79  A    between atoms: _203  and  _204
REMARK   80  A    between atoms: _203  and  _206
REMARK   81  A    between atoms: _206  and  _207
REMARK   82  A    between atoms: _210  and  _212
REMARK   83  A    between atoms: _212  and  _213
REMARK   84  A    between atoms: _215  and  _217
REMARK   85  A    between atoms: _217  and  _218
REMARK   86  A    between atoms: _217  and  _220
REMARK   87  A    between atoms: _220  and  _221
REMARK   88  A    between atoms: _223  and  _225
REMARK   89  A    between atoms: _225  and  _226
REMARK   90  A    between atoms: _225  and  _228
REMARK   91  A    between atoms: _228  and  _229
REMARK   92  A    between atoms: _239  and  _241
REMARK   93  A    between atoms: _241  and  _242
REMARK   94  A    between atoms: _241  and  _244
REMARK   95  A    between atoms: _244  and  _245
REMARK   96  A    between atoms: _247  and  _249
REMARK   97  A    between atoms: _249  and  _250
REMARK   98  A    between atoms: _249  and  _252
REMARK   99  A    between atoms: _252  and  _253
REMARK  100  A    between atoms: _256  and  _258
REMARK  101  A    between atoms: _258  and  _259
REMARK  102  A    between atoms: _262  and  _264
REMARK  103  A    between atoms: _264  and  _265
REMARK  104  A    between atoms: _264  and  _267
REMARK  105  A    between atoms: _267  and  _268
REMARK  106  A    between atoms: _270  and  _272
REMARK  107  A    between atoms: _272  and  _273
REMARK  108  A    between atoms: _272  and  _275
REMARK  109  A    between atoms: _275  and  _276
REMARK  110  A    between atoms: _276  and  _277
REMARK  111  A    between atoms: _281  and  _282
REMARK  112  A    between atoms: _287  and  _289
REMARK  113  A    between atoms: _289  and  _290
REMARK  114  A    between atoms: _289  and  _292
REMARK  115  A    between atoms: _292  and  _293
REMARK  116  A    between atoms: _295  and  _297
REMARK  117  A    between atoms: _297  and  _298
REMARK  118  A    between atoms: _297  and  _300
REMARK  119  A    between atoms: _300  and  _301
REMARK  120  A    between atoms: _301  and  _302
REMARK  121  A    between atoms: _307  and  _309
REMARK  122  A    between atoms: _309  and  _310
REMARK  123  A    between atoms: _309  and  _312
REMARK  124  A    between atoms: _312  and  _313
REMARK  125  A    between atoms: _316  and  _318
REMARK  126  A    between atoms: _318  and  _319
REMARK  127  A    between atoms: _318  and  _321
REMARK  128  A    between atoms: _321  and  _322
REMARK  129  A    between atoms: _325  and  _327
REMARK  130  A    between atoms: _327  and  _328
REMARK  131  A    between atoms: _327  and  _330
REMARK  132  A    between atoms: _330  and  _331
REMARK  133  A    between atoms: _336  and  _337
REMARK  134  A    between atoms: _339  and  _341
REMARK  135  A    between atoms: _341  and  _342
REMARK  136  A    between atoms: _341  and  _344
REMARK  137  A    between atoms: _344  and  _345
REMARK  138  A    between atoms: _351  and  _353
REMARK  139  A    between atoms: _353  and  _354
REMARK  140  A    between atoms: _353  and  _356
REMARK  141  A    between atoms: _356  and  _357
REMARK  142  A    between atoms: _357  and  _358
REMARK                            x       y       z     vdW  Elec       q    Type
REMARK                         _______ _______ _______ _____ _____    ______ ____
ROOT
ATOM      1  O   HOH     1      -5.786  20.550   2.451  0.00  0.00    +0.000 OA
ENDROOT
TORSDOF 0
