REMARK  Name = ../refined-set-2016/1bzy/1bzy_pocket.pdb
REMARK  250 active torsions:
REMARK  status: ('A' for Active; 'I' for Inactive)
REMARK    1  A    between atoms: _1  and  _3
REMARK    2  A    between atoms: _3  and  _4
REMARK    3  A    between atoms: _3  and  _6
REMARK    4  A    between atoms: _9  and  _11
REMARK    5  A    between atoms: _11  and  _12
REMARK    6  A    between atoms: _11  and  _14
REMARK    7  A    between atoms: _14  and  _15
REMARK    8  A    between atoms: _18  and  _20
REMARK    9  A    between atoms: _20  and  _21
REMARK   10  A    between atoms: _20  and  _23
REMARK   11  A    between atoms: _23  and  _24
REMARK   12  A    between atoms: _24  and  _25
REMARK   13  A    between atoms: _25  and  _26
REMARK   14  A    between atoms: _26  and  _27
REMARK   15  A    between atoms: _31  and  _33
REMARK   16  A    between atoms: _33  and  _34
REMARK   17  A    between atoms: _36  and  _38
REMARK   18  A    between atoms: _38  and  _39
REMARK   19  A    between atoms: _41  and  _43
REMARK   20  A    between atoms: _43  and  _44
REMARK   21  A    between atoms: _43  and  _46
REMARK   22  A    between atoms: _46  and  _47
REMARK   23  A    between atoms: _52  and  _53
REMARK   24  A    between atoms: _55  and  _57
REMARK   25  A    between atoms: _57  and  _58
REMARK   26  A    between atoms: _57  and  _60
REMARK   27  A    between atoms: _60  and  _61
REMARK   28  A    between atoms: _64  and  _66
REMARK   29  A    between atoms: _66  and  _67
REMARK   30  A    between atoms: _66  and  _69
REMARK   31  A    between atoms: _69  and  _70
REMARK   32  A    between atoms: _70  and  _71
REMARK   33  A    between atoms: _71  and  _72
REMARK   34  A    between atoms: _72  and  _73
REMARK   35  A    between atoms: _77  and  _79
REMARK   36  A    between atoms: _79  and  _80
REMARK   37  A    between atoms: _79  and  _82
REMARK   38  A    between atoms: _82  and  _83
REMARK   39  A    between atoms: _85  and  _87
REMARK   40  A    between atoms: _87  and  _88
REMARK   41  A    between atoms: _87  and  _90
REMARK   42  A    between atoms: _90  and  _91
REMARK   43  A    between atoms: _96  and  _97
REMARK   44  A    between atoms: _99  and  _101
REMARK   45  A    between atoms: _101  and  _102
REMARK   46  A    between atoms: _101  and  _104
REMARK   47  A    between atoms: _106  and  _108
REMARK   48  A    between atoms: _108  and  _109
REMARK   49  A    between atoms: _108  and  _111
REMARK   50  A    between atoms: _111  and  _112
REMARK   51  A    between atoms: _117  and  _119
REMARK   52  A    between atoms: _119  and  _120
REMARK   53  A    between atoms: _119  and  _122
REMARK   54  A    between atoms: _122  and  _123
REMARK   55  A    between atoms: _126  and  _128
REMARK   56  A    between atoms: _128  and  _129
REMARK   57  A    between atoms: _128  and  _131
REMARK   58  A    between atoms: _131  and  _132
REMARK   59  A    between atoms: _132  and  _133
REMARK   60  A    between atoms: _138  and  _140
REMARK   61  A    between atoms: _140  and  _141
REMARK   62  A    between atoms: _140  and  _143
REMARK   63  A    between atoms: _143  and  _144
REMARK   64  A    between atoms: _146  and  _148
REMARK   65  A    between atoms: _148  and  _149
REMARK   66  A    between atoms: _148  and  _151
REMARK   67  A    between atoms: _151  and  _152
REMARK   68  A    between atoms: _155  and  _157
REMARK   69  A    between atoms: _157  and  _158
REMARK   70  A    between atoms: _160  and  _162
REMARK   71  A    between atoms: _162  and  _163
REMARK   72  A    between atoms: _162  and  _165
REMARK   73  A    between atoms: _165  and  _166
REMARK   74  A    between atoms: _169  and  _171
REMARK   75  A    between atoms: _171  and  _172
REMARK   76  A    between atoms: _171  and  _174
REMARK   77  A    between atoms: _174  and  _175
REMARK   78  A    between atoms: _175  and  _176
REMARK   79  A    between atoms: _179  and  _181
REMARK   80  A    between atoms: _181  and  _182
REMARK   81  A    between atoms: _181  and  _184
REMARK   82  A    between atoms: _184  and  _185
REMARK   83  A    between atoms: _188  and  _190
REMARK   84  A    between atoms: _190  and  _191
REMARK   85  A    between atoms: _190  and  _193
REMARK   86  A    between atoms: _193  and  _194
REMARK   87  A    between atoms: _197  and  _199
REMARK   88  A    between atoms: _199  and  _200
REMARK   89  A    between atoms: _199  and  _202
REMARK   90  A    between atoms: _202  and  _203
REMARK   91  A    between atoms: _206  and  _208
REMARK   92  A    between atoms: _208  and  _209
REMARK   93  A    between atoms: _208  and  _211
REMARK   94  A    between atoms: _211  and  _212
REMARK   95  A    between atoms: _215  and  _217
REMARK   96  A    between atoms: _217  and  _218
REMARK   97  A    between atoms: _217  and  _220
REMARK   98  A    between atoms: _220  and  _221
REMARK   99  A    between atoms: _224  and  _226
REMARK  100  A    between atoms: _226  and  _227
REMARK  101  A    between atoms: _229  and  _231
REMARK  102  A    between atoms: _231  and  _232
REMARK  103  A    between atoms: _231  and  _234
REMARK  104  A    between atoms: _234  and  _235
REMARK  105  A    between atoms: _235  and  _236
REMARK  106  A    between atoms: _236  and  _237
REMARK  107  A    between atoms: _237  and  _238
REMARK  108  A    between atoms: _242  and  _244
REMARK  109  A    between atoms: _244  and  _245
REMARK  110  A    between atoms: _244  and  _247
REMARK  111  A    between atoms: _247  and  _248
REMARK  112  A    between atoms: _251  and  _253
REMARK  113  A    between atoms: _253  and  _254
REMARK  114  A    between atoms: _253  and  _256
REMARK  115  A    between atoms: _256  and  _257
REMARK  116  A    between atoms: _257  and  _258
REMARK  117  A    between atoms: _260  and  _262
REMARK  118  A    between atoms: _262  and  _263
REMARK  119  A    between atoms: _262  and  _265
REMARK  120  A    between atoms: _265  and  _266
REMARK  121  A    between atoms: _266  and  _267
REMARK  122  A    between atoms: _272  and  _274
REMARK  123  A    between atoms: _274  and  _275
REMARK  124  A    between atoms: _274  and  _277
REMARK  125  A    between atoms: _277  and  _278
REMARK  126  A    between atoms: _281  and  _283
REMARK  127  A    between atoms: _283  and  _284
REMARK  128  A    between atoms: _283  and  _286
REMARK  129  A    between atoms: _286  and  _287
REMARK  130  A    between atoms: _290  and  _292
REMARK  131  A    between atoms: _292  and  _293
REMARK  132  A    between atoms: _292  and  _295
REMARK  133  A    between atoms: _295  and  _296
REMARK  134  A    between atoms: _298  and  _300
REMARK  135  A    between atoms: _300  and  _301
REMARK  136  A    between atoms: _300  and  _303
REMARK  137  A    between atoms: _303  and  _304
REMARK  138  A    between atoms: _307  and  _309
REMARK  139  A    between atoms: _309  and  _310
REMARK  140  A    between atoms: _309  and  _312
REMARK  141  A    between atoms: _312  and  _313
REMARK  142  A    between atoms: _313  and  _314
REMARK  143  A    between atoms: _314  and  _315
REMARK  144  A    between atoms: _315  and  _316
REMARK  145  A    between atoms: _320  and  _322
REMARK  146  A    between atoms: _322  and  _323
REMARK  147  A    between atoms: _322  and  _325
REMARK  148  A    between atoms: _325  and  _326
REMARK  149  A    between atoms: _329  and  _331
REMARK  150  A    between atoms: _331  and  _332
REMARK  151  A    between atoms: _331  and  _334
REMARK  152  A    between atoms: _334  and  _335
REMARK  153  A    between atoms: _335  and  _336
REMARK  154  A    between atoms: _336  and  _337
REMARK  155  A    between atoms: _346  and  _348
REMARK  156  A    between atoms: _348  and  _349
REMARK  157  A    between atoms: _348  and  _351
REMARK  158  A    between atoms: _351  and  _352
REMARK  159  A    between atoms: _354  and  _356
REMARK  160  A    between atoms: _356  and  _357
REMARK  161  A    between atoms: _356  and  _359
REMARK  162  A    between atoms: _362  and  _364
REMARK  163  A    between atoms: _364  and  _365
REMARK  164  A    between atoms: _364  and  _367
REMARK  165  A    between atoms: _367  and  _368
REMARK  166  A    between atoms: _373  and  _374
REMARK  167  A    between atoms: _376  and  _378
REMARK  168  A    between atoms: _378  and  _379
REMARK  169  A    between atoms: _378  and  _381
REMARK  170  A    between atoms: _381  and  _382
REMARK  171  A    between atoms: _386  and  _387
REMARK  172  A    between atoms: _392  and  _394
REMARK  173  A    between atoms: _394  and  _395
REMARK  174  A    between atoms: _394  and  _397
REMARK  175  A    between atoms: _397  and  _398
REMARK  176  A    between atoms: _401  and  _403
REMARK  177  A    between atoms: _403  and  _404
REMARK  178  A    between atoms: _403  and  _406
REMARK  179  A    between atoms: _406  and  _407
REMARK  180  A    between atoms: _407  and  _408
REMARK  181  A    between atoms: _408  and  _409
REMARK  182  A    between atoms: _409  and  _410
REMARK  183  A    between atoms: _414  and  _416
REMARK  184  A    between atoms: _416  and  _417
REMARK  185  A    between atoms: _416  and  _419
REMARK  186  A    between atoms: _419  and  _420
REMARK  187  A    between atoms: _426  and  _428
REMARK  188  A    between atoms: _428  and  _429
REMARK  189  A    between atoms: _428  and  _431
REMARK  190  A    between atoms: _434  and  _436
REMARK  191  A    between atoms: _436  and  _437
REMARK  192  A    between atoms: _436  and  _439
REMARK  193  A    between atoms: _442  and  _444
REMARK  194  A    between atoms: _444  and  _445
REMARK  195  A    between atoms: _447  and  _449
REMARK  196  A    between atoms: _449  and  _450
REMARK  197  A    between atoms: _449  and  _452
REMARK  198  A    between atoms: _452  and  _453
REMARK  199  A    between atoms: _458  and  _459
REMARK  200  A    between atoms: _461  and  _463
REMARK  201  A    between atoms: _463  and  _464
REMARK  202  A    between atoms: _467  and  _469
REMARK  203  A    between atoms: _469  and  _470
REMARK  204  A    between atoms: _469  and  _472
REMARK  205  A    between atoms: _472  and  _473
REMARK  206  A    between atoms: _476  and  _478
REMARK  207  A    between atoms: _478  and  _479
REMARK  208  A    between atoms: _478  and  _481
REMARK  209  A    between atoms: _481  and  _482
REMARK  210  A    between atoms: _482  and  _483
REMARK  211  A    between atoms: _483  and  MG_588
REMARK  212  A    between atoms: _485  and  _487
REMARK  213  A    between atoms: _487  and  _488
REMARK  214  A    between atoms: _487  and  _490
REMARK  215  A    between atoms: _490  and  _491
REMARK  216  A    between atoms: _496  and  _497
REMARK  217  A    between atoms: _499  and  _501
REMARK  218  A    between atoms: _501  and  _502
REMARK  219  A    between atoms: _501  and  _504
REMARK  220  A    between atoms: _504  and  _505
REMARK  221  A    between atoms: _510  and  _512
REMARK  222  A    between atoms: _512  and  _513
REMARK  223  A    between atoms: _512  and  _515
REMARK  224  A    between atoms: _515  and  _516
REMARK  225  A    between atoms: _516  and  _517
REMARK  226  A    between atoms: _520  and  _522
REMARK  227  A    between atoms: _522  and  _523
REMARK  228  A    between atoms: _522  and  _525
REMARK  229  A    between atoms: _525  and  _526
REMARK  230  A    between atoms: _531  and  _532
REMARK  231  A    between atoms: _534  and  _536
REMARK  232  A    between atoms: _536  and  _537
REMARK  233  A    between atoms: _536  and  _539
REMARK  234  A    between atoms: _539  and  _540
REMARK  235  A    between atoms: _546  and  _548
REMARK  236  A    between atoms: _548  and  _549
REMARK  237  A    between atoms: _548  and  _551
REMARK  238  A    between atoms: _551  and  _552
REMARK  239  A    between atoms: _552  and  _553
REMARK  240  A    between atoms: _553  and  _554
REMARK  241  A    between atoms: _563  and  _565
REMARK  242  A    between atoms: _565  and  _566
REMARK  243  A    between atoms: _565  and  _568
REMARK  244  A    between atoms: _571  and  _573
REMARK  245  A    between atoms: _573  and  _574
REMARK  246  A    between atoms: _573  and  _576
REMARK  247  A    between atoms: _578  and  _580
REMARK  248  A    between atoms: _580  and  _581
REMARK  249  A    between atoms: _580  and  _583
REMARK  250  A    between atoms: _583  and  _584
REMARK                            x       y       z     vdW  Elec       q    Type
REMARK                         _______ _______ _______ _____ _____    ______ ____
ROOT
ATOM      1  CA  LYS A   3       5.324  93.948  42.934  0.00  0.00    +0.149 C 
ENDROOT
BRANCH   1   3
ATOM      2  C   LEU A   2       7.311  93.666  41.497  0.00  0.00    +0.241 C 
ATOM      3  N   LYS A   3       6.130  93.241  41.938  0.00  0.00    -0.297 N 
ATOM      4  H   LYS A   3       5.756  92.351  41.551  0.00  0.00    +0.150 HD
ATOM      5  O   LEU A   2       7.955  93.035  40.661  0.00  0.00    -0.273 OA
BRANCH   2   6
ATOM      6  CA  LEU A   2       7.853  94.987  42.057  0.00  0.00    +0.149 C 
BRANCH   6   9
ATOM      7  C   VAL A   1      10.089  94.417  42.893  0.00  0.00    +0.238 C 
ATOM      8  O   VAL A   1       9.652  93.763  43.836  0.00  0.00    -0.274 OA
ATOM      9  N   LEU A   2       9.312  95.022  42.002  0.00  0.00    -0.297 N 
ATOM     10  H   LEU A   2       9.765  95.547  41.227  0.00  0.00    +0.150 HD
BRANCH   7  11
ATOM     11  CA  VAL A   1      11.587  94.590  42.691  0.00  0.00    +0.145 C 
BRANCH  11  12
ATOM     12  CB  VAL A   1      12.289  93.235  42.905  0.00  0.00    +0.025 C 
ATOM     13  CG2 VAL A   1      13.786  93.442  42.961  0.00  0.00    +0.002 C 
ATOM     14  CG1 VAL A   1      11.923  92.268  41.788  0.00  0.00    +0.002 C 
ENDBRANCH  11  12
BRANCH  11  15
ATOM     15  N   VAL A   1      12.042  95.577  43.667  0.00  0.00    -0.238 NA
ATOM     16  H   VAL A   1      12.369  95.250  44.599  0.00  0.00    +0.142 HD
ENDBRANCH  11  15
ENDBRANCH   7  11
ENDBRANCH   6   9
BRANCH   6  17
ATOM     17  CB  LEU A   2       7.302  96.167  41.245  0.00  0.00    +0.029 C 
BRANCH  17  18
ATOM     18  CG  LEU A   2       6.737  97.458  41.868  0.00  0.00    +0.002 C 
ATOM     19  CD2 LEU A   2       6.987  97.523  43.352  0.00  0.00    +0.000 C 
ATOM     20  CD1 LEU A   2       7.341  98.654  41.151  0.00  0.00    +0.000 C 
ENDBRANCH  17  18
ENDBRANCH   6  17
ENDBRANCH   2   6
ENDBRANCH   1   3
BRANCH   1  21
ATOM     21  C   LYS A   3       5.598  93.354  44.302  0.00  0.00    +0.241 C 
ATOM     22  O   LYS A   3       5.382  94.006  45.319  0.00  0.00    -0.273 OA
ATOM     23  N   GLY A   4       6.051  92.103  44.309  0.00  0.00    -0.295 N 
ATOM     24  H   GLY A   4       6.233  91.630  43.401  0.00  0.00    +0.150 HD
BRANCH  23  25
ATOM     25  CA  GLY A   4       6.300  91.376  45.542  0.00  0.00    +0.176 C 
BRANCH  25  26
ATOM     26  C   GLY A   4       7.100  92.021  46.653  0.00  0.00    +0.243 C 
ATOM     27  O   GLY A   4       6.741  91.891  47.814  0.00  0.00    -0.273 OA
ATOM     28  N   GLY A   5       8.186  92.703  46.317  0.00  0.00    -0.295 N 
ATOM     29  H   GLY A   5       8.457  92.798  45.317  0.00  0.00    +0.150 HD
BRANCH  28  30
ATOM     30  CA  GLY A   5       8.993  93.316  47.354  0.00  0.00    +0.176 C 
BRANCH  30  31
ATOM     31  C   GLY A   5       8.574  94.695  47.821  0.00  0.00    +0.243 C 
ATOM     32  O   GLY A   5       9.322  95.320  48.570  0.00  0.00    -0.273 OA
ATOM     33  N   TYR A   6       7.390  95.158  47.423  0.00  0.00    -0.298 N 
ATOM     34  H   TYR A   6       6.776  94.557  46.837  0.00  0.00    +0.150 HD
BRANCH  33  35
ATOM     35  CA  TYR A   6       6.942  96.497  47.797  0.00  0.00    +0.141 C 
BRANCH  35  36
ATOM     36  C   TYR A   6       6.792  96.759  49.306  0.00  0.00    +0.227 C 
ATOM     37  O   TYR A   6       7.120  97.848  49.788  0.00  0.00    -0.286 OA
ENDBRANCH  35  36
BRANCH  35  38
ATOM     38  CB  TYR A   6       5.649  96.852  47.024  0.00  0.00    +0.054 C 
BRANCH  38  39
ATOM     39  CG  TYR A   6       4.367  96.936  47.834  0.00  0.00    -0.020 A 
ATOM     40  CD2 TYR A   6       4.073  98.059  48.610  0.00  0.00    -0.001 A 
ATOM     41  CE2 TYR A   6       2.887  98.137  49.352  0.00  0.00    +0.036 A 
ATOM     42  CZ  TYR A   6       1.987  97.077  49.317  0.00  0.00    +0.134 A 
ATOM     43  CE1 TYR A   6       2.255  95.955  48.553  0.00  0.00    +0.036 A 
ATOM     44  CD1 TYR A   6       3.440  95.890  47.818  0.00  0.00    -0.001 A 
BRANCH  42  45
ATOM     45  OH  TYR A   6       0.831  97.136  50.062  0.00  0.00    -0.506 OA
ATOM     46  HH  TYR A   6       1.062  97.226  51.021  0.00  0.00    +0.292 HD
ENDBRANCH  42  45
ENDBRANCH  38  39
ENDBRANCH  35  38
ENDBRANCH  33  35
ENDBRANCH  30  31
ENDBRANCH  28  30
ENDBRANCH  25  26
ENDBRANCH  23  25
ENDBRANCH   1  21
BRANCH   1  47
ATOM     47  CB  LYS A   3       3.827  93.753  42.662  0.00  0.00    +0.029 C 
BRANCH  47  48
ATOM     48  CG  LYS A   3       3.278  94.322  41.374  0.00  0.00    +0.000 C 
BRANCH  48  49
ATOM     49  CD  LYS A   3       1.766  94.093  41.329  0.00  0.00    -0.024 C 
BRANCH  49  50
ATOM     50  CE  LYS A   3       1.212  94.225  39.917  0.00  0.00    -0.086 C 
BRANCH  50  51
ATOM     51  NZ  LYS A   3      -0.198  93.768  39.831  0.00  0.00    +0.380 N 
ATOM     52  HZ1 LYS A   3      -0.787  94.342  40.468  0.00  0.00    -0.089 HD
ATOM     53  HZ2 LYS A   3      -0.255  92.768  40.112  0.00  0.00    -0.089 HD
ATOM     54  HZ3 LYS A   3      -0.537  93.875  38.853  0.00  0.00    -0.089 HD
ENDBRANCH  50  51
ENDBRANCH  49  50
ENDBRANCH  48  49
ENDBRANCH  47  48
ENDBRANCH   1  47
TORSDOF 23
REMARK  Name = ../refined-set-2016/1bzy/1bzy_pocket.pdb
REMARK  250 active torsions:
REMARK  status: ('A' for Active; 'I' for Inactive)
REMARK    1  A    between atoms: _1  and  _3
REMARK    2  A    between atoms: _3  and  _4
REMARK    3  A    between atoms: _3  and  _6
REMARK    4  A    between atoms: _9  and  _11
REMARK    5  A    between atoms: _11  and  _12
REMARK    6  A    between atoms: _11  and  _14
REMARK    7  A    between atoms: _14  and  _15
REMARK    8  A    between atoms: _18  and  _20
REMARK    9  A    between atoms: _20  and  _21
REMARK   10  A    between atoms: _20  and  _23
REMARK   11  A    between atoms: _23  and  _24
REMARK   12  A    between atoms: _24  and  _25
REMARK   13  A    between atoms: _25  and  _26
REMARK   14  A    between atoms: _26  and  _27
REMARK   15  A    between atoms: _31  and  _33
REMARK   16  A    between atoms: _33  and  _34
REMARK   17  A    between atoms: _36  and  _38
REMARK   18  A    between atoms: _38  and  _39
REMARK   19  A    between atoms: _41  and  _43
REMARK   20  A    between atoms: _43  and  _44
REMARK   21  A    between atoms: _43  and  _46
REMARK   22  A    between atoms: _46  and  _47
REMARK   23  A    between atoms: _52  and  _53
REMARK   24  A    between atoms: _55  and  _57
REMARK   25  A    between atoms: _57  and  _58
REMARK   26  A    between atoms: _57  and  _60
REMARK   27  A    between atoms: _60  and  _61
REMARK   28  A    between atoms: _64  and  _66
REMARK   29  A    between atoms: _66  and  _67
REMARK   30  A    between atoms: _66  and  _69
REMARK   31  A    between atoms: _69  and  _70
REMARK   32  A    between atoms: _70  and  _71
REMARK   33  A    between atoms: _71  and  _72
REMARK   34  A    between atoms: _72  and  _73
REMARK   35  A    between atoms: _77  and  _79
REMARK   36  A    between atoms: _79  and  _80
REMARK   37  A    between atoms: _79  and  _82
REMARK   38  A    between atoms: _82  and  _83
REMARK   39  A    between atoms: _85  and  _87
REMARK   40  A    between atoms: _87  and  _88
REMARK   41  A    between atoms: _87  and  _90
REMARK   42  A    between atoms: _90  and  _91
REMARK   43  A    between atoms: _96  and  _97
REMARK   44  A    between atoms: _99  and  _101
REMARK   45  A    between atoms: _101  and  _102
REMARK   46  A    between atoms: _101  and  _104
REMARK   47  A    between atoms: _106  and  _108
REMARK   48  A    between atoms: _108  and  _109
REMARK   49  A    between atoms: _108  and  _111
REMARK   50  A    between atoms: _111  and  _112
REMARK   51  A    between atoms: _117  and  _119
REMARK   52  A    between atoms: _119  and  _120
REMARK   53  A    between atoms: _119  and  _122
REMARK   54  A    between atoms: _122  and  _123
REMARK   55  A    between atoms: _126  and  _128
REMARK   56  A    between atoms: _128  and  _129
REMARK   57  A    between atoms: _128  and  _131
REMARK   58  A    between atoms: _131  and  _132
REMARK   59  A    between atoms: _132  and  _133
REMARK   60  A    between atoms: _138  and  _140
REMARK   61  A    between atoms: _140  and  _141
REMARK   62  A    between atoms: _140  and  _143
REMARK   63  A    between atoms: _143  and  _144
REMARK   64  A    between atoms: _146  and  _148
REMARK   65  A    between atoms: _148  and  _149
REMARK   66  A    between atoms: _148  and  _151
REMARK   67  A    between atoms: _151  and  _152
REMARK   68  A    between atoms: _155  and  _157
REMARK   69  A    between atoms: _157  and  _158
REMARK   70  A    between atoms: _160  and  _162
REMARK   71  A    between atoms: _162  and  _163
REMARK   72  A    between atoms: _162  and  _165
REMARK   73  A    between atoms: _165  and  _166
REMARK   74  A    between atoms: _169  and  _171
REMARK   75  A    between atoms: _171  and  _172
REMARK   76  A    between atoms: _171  and  _174
REMARK   77  A    between atoms: _174  and  _175
REMARK   78  A    between atoms: _175  and  _176
REMARK   79  A    between atoms: _179  and  _181
REMARK   80  A    between atoms: _181  and  _182
REMARK   81  A    between atoms: _181  and  _184
REMARK   82  A    between atoms: _184  and  _185
REMARK   83  A    between atoms: _188  and  _190
REMARK   84  A    between atoms: _190  and  _191
REMARK   85  A    between atoms: _190  and  _193
REMARK   86  A    between atoms: _193  and  _194
REMARK   87  A    between atoms: _197  and  _199
REMARK   88  A    between atoms: _199  and  _200
REMARK   89  A    between atoms: _199  and  _202
REMARK   90  A    between atoms: _202  and  _203
REMARK   91  A    between atoms: _206  and  _208
REMARK   92  A    between atoms: _208  and  _209
REMARK   93  A    between atoms: _208  and  _211
REMARK   94  A    between atoms: _211  and  _212
REMARK   95  A    between atoms: _215  and  _217
REMARK   96  A    between atoms: _217  and  _218
REMARK   97  A    between atoms: _217  and  _220
REMARK   98  A    between atoms: _220  and  _221
REMARK   99  A    between atoms: _224  and  _226
REMARK  100  A    between atoms: _226  and  _227
REMARK  101  A    between atoms: _229  and  _231
REMARK  102  A    between atoms: _231  and  _232
REMARK  103  A    between atoms: _231  and  _234
REMARK  104  A    between atoms: _234  and  _235
REMARK  105  A    between atoms: _235  and  _236
REMARK  106  A    between atoms: _236  and  _237
REMARK  107  A    between atoms: _237  and  _238
REMARK  108  A    between atoms: _242  and  _244
REMARK  109  A    between atoms: _244  and  _245
REMARK  110  A    between atoms: _244  and  _247
REMARK  111  A    between atoms: _247  and  _248
REMARK  112  A    between atoms: _251  and  _253
REMARK  113  A    between atoms: _253  and  _254
REMARK  114  A    between atoms: _253  and  _256
REMARK  115  A    between atoms: _256  and  _257
REMARK  116  A    between atoms: _257  and  _258
REMARK  117  A    between atoms: _260  and  _262
REMARK  118  A    between atoms: _262  and  _263
REMARK  119  A    between atoms: _262  and  _265
REMARK  120  A    between atoms: _265  and  _266
REMARK  121  A    between atoms: _266  and  _267
REMARK  122  A    between atoms: _272  and  _274
REMARK  123  A    between atoms: _274  and  _275
REMARK  124  A    between atoms: _274  and  _277
REMARK  125  A    between atoms: _277  and  _278
REMARK  126  A    between atoms: _281  and  _283
REMARK  127  A    between atoms: _283  and  _284
REMARK  128  A    between atoms: _283  and  _286
REMARK  129  A    between atoms: _286  and  _287
REMARK  130  A    between atoms: _290  and  _292
REMARK  131  A    between atoms: _292  and  _293
REMARK  132  A    between atoms: _292  and  _295
REMARK  133  A    between atoms: _295  and  _296
REMARK  134  A    between atoms: _298  and  _300
REMARK  135  A    between atoms: _300  and  _301
REMARK  136  A    between atoms: _300  and  _303
REMARK  137  A    between atoms: _303  and  _304
REMARK  138  A    between atoms: _307  and  _309
REMARK  139  A    between atoms: _309  and  _310
REMARK  140  A    between atoms: _309  and  _312
REMARK  141  A    between atoms: _312  and  _313
REMARK  142  A    between atoms: _313  and  _314
REMARK  143  A    between atoms: _314  and  _315
REMARK  144  A    between atoms: _315  and  _316
REMARK  145  A    between atoms: _320  and  _322
REMARK  146  A    between atoms: _322  and  _323
REMARK  147  A    between atoms: _322  and  _325
REMARK  148  A    between atoms: _325  and  _326
REMARK  149  A    between atoms: _329  and  _331
REMARK  150  A    between atoms: _331  and  _332
REMARK  151  A    between atoms: _331  and  _334
REMARK  152  A    between atoms: _334  and  _335
REMARK  153  A    between atoms: _335  and  _336
REMARK  154  A    between atoms: _336  and  _337
REMARK  155  A    between atoms: _346  and  _348
REMARK  156  A    between atoms: _348  and  _349
REMARK  157  A    between atoms: _348  and  _351
REMARK  158  A    between atoms: _351  and  _352
REMARK  159  A    between atoms: _354  and  _356
REMARK  160  A    between atoms: _356  and  _357
REMARK  161  A    between atoms: _356  and  _359
REMARK  162  A    between atoms: _362  and  _364
REMARK  163  A    between atoms: _364  and  _365
REMARK  164  A    between atoms: _364  and  _367
REMARK  165  A    between atoms: _367  and  _368
REMARK  166  A    between atoms: _373  and  _374
REMARK  167  A    between atoms: _376  and  _378
REMARK  168  A    between atoms: _378  and  _379
REMARK  169  A    between atoms: _378  and  _381
REMARK  170  A    between atoms: _381  and  _382
REMARK  171  A    between atoms: _386  and  _387
REMARK  172  A    between atoms: _392  and  _394
REMARK  173  A    between atoms: _394  and  _395
REMARK  174  A    between atoms: _394  and  _397
REMARK  175  A    between atoms: _397  and  _398
REMARK  176  A    between atoms: _401  and  _403
REMARK  177  A    between atoms: _403  and  _404
REMARK  178  A    between atoms: _403  and  _406
REMARK  179  A    between atoms: _406  and  _407
REMARK  180  A    between atoms: _407  and  _408
REMARK  181  A    between atoms: _408  and  _409
REMARK  182  A    between atoms: _409  and  _410
REMARK  183  A    between atoms: _414  and  _416
REMARK  184  A    between atoms: _416  and  _417
REMARK  185  A    between atoms: _416  and  _419
REMARK  186  A    between atoms: _419  and  _420
REMARK  187  A    between atoms: _426  and  _428
REMARK  188  A    between atoms: _428  and  _429
REMARK  189  A    between atoms: _428  and  _431
REMARK  190  A    between atoms: _434  and  _436
REMARK  191  A    between atoms: _436  and  _437
REMARK  192  A    between atoms: _436  and  _439
REMARK  193  A    between atoms: _442  and  _444
REMARK  194  A    between atoms: _444  and  _445
REMARK  195  A    between atoms: _447  and  _449
REMARK  196  A    between atoms: _449  and  _450
REMARK  197  A    between atoms: _449  and  _452
REMARK  198  A    between atoms: _452  and  _453
REMARK  199  A    between atoms: _458  and  _459
REMARK  200  A    between atoms: _461  and  _463
REMARK  201  A    between atoms: _463  and  _464
REMARK  202  A    between atoms: _467  and  _469
REMARK  203  A    between atoms: _469  and  _470
REMARK  204  A    between atoms: _469  and  _472
REMARK  205  A    between atoms: _472  and  _473
REMARK  206  A    between atoms: _476  and  _478
REMARK  207  A    between atoms: _478  and  _479
REMARK  208  A    between atoms: _478  and  _481
REMARK  209  A    between atoms: _481  and  _482
REMARK  210  A    between atoms: _482  and  _483
REMARK  211  A    between atoms: _483  and  MG_588
REMARK  212  A    between atoms: _485  and  _487
REMARK  213  A    between atoms: _487  and  _488
REMARK  214  A    between atoms: _487  and  _490
REMARK  215  A    between atoms: _490  and  _491
REMARK  216  A    between atoms: _496  and  _497
REMARK  217  A    between atoms: _499  and  _501
REMARK  218  A    between atoms: _501  and  _502
REMARK  219  A    between atoms: _501  and  _504
REMARK  220  A    between atoms: _504  and  _505
REMARK  221  A    between atoms: _510  and  _512
REMARK  222  A    between atoms: _512  and  _513
REMARK  223  A    between atoms: _512  and  _515
REMARK  224  A    between atoms: _515  and  _516
REMARK  225  A    between atoms: _516  and  _517
REMARK  226  A    between atoms: _520  and  _522
REMARK  227  A    between atoms: _522  and  _523
REMARK  228  A    between atoms: _522  and  _525
REMARK  229  A    between atoms: _525  and  _526
REMARK  230  A    between atoms: _531  and  _532
REMARK  231  A    between atoms: _534  and  _536
REMARK  232  A    between atoms: _536  and  _537
REMARK  233  A    between atoms: _536  and  _539
REMARK  234  A    between atoms: _539  and  _540
REMARK  235  A    between atoms: _546  and  _548
REMARK  236  A    between atoms: _548  and  _549
REMARK  237  A    between atoms: _548  and  _551
REMARK  238  A    between atoms: _551  and  _552
REMARK  239  A    between atoms: _552  and  _553
REMARK  240  A    between atoms: _553  and  _554
REMARK  241  A    between atoms: _563  and  _565
REMARK  242  A    between atoms: _565  and  _566
REMARK  243  A    between atoms: _565  and  _568
REMARK  244  A    between atoms: _571  and  _573
REMARK  245  A    between atoms: _573  and  _574
REMARK  246  A    between atoms: _573  and  _576
REMARK  247  A    between atoms: _578  and  _580
REMARK  248  A    between atoms: _580  and  _581
REMARK  249  A    between atoms: _580  and  _583
REMARK  250  A    between atoms: _583  and  _584
REMARK                            x       y       z     vdW  Elec       q    Type
REMARK                         _______ _______ _______ _____ _____    ______ ____
ROOT
ATOM      1  C   CYS A   5       1.123  80.622  38.519  0.00  0.00    +0.242 C 
ATOM      2  N   ASN A   6       0.140  81.012  39.324  0.00  0.00    -0.297 N 
ATOM      3  H   ASN A   6      -0.344  81.913  39.134  0.00  0.00    +0.150 HD
ATOM      4  O   CYS A   5       1.715  79.554  38.648  0.00  0.00    -0.273 OA
ENDROOT
BRANCH   1   5
ATOM      5  CA  CYS A   5       1.514  81.578  37.402  0.00  0.00    +0.160 C 
BRANCH   5   7
ATOM      6  C   TYR A   4       3.392  83.133  37.710  0.00  0.00    +0.241 C 
ATOM      7  N   CYS A   5       2.892  81.902  37.727  0.00  0.00    -0.296 N 
ATOM      8  H   CYS A   5       3.527  81.122  37.990  0.00  0.00    +0.150 HD
ATOM      9  O   TYR A   4       2.756  84.130  37.379  0.00  0.00    -0.273 OA
BRANCH   6  10
ATOM     10  CA  TYR A   4       4.844  83.231  38.132  0.00  0.00    +0.153 C 
BRANCH  10  12
ATOM     11  C   SER A   3       6.437  84.003  36.485  0.00  0.00    +0.243 C 
ATOM     12  N   TYR A   4       5.631  84.288  37.504  0.00  0.00    -0.297 N 
ATOM     13  H   TYR A   4       5.561  85.265  37.854  0.00  0.00    +0.150 HD
ATOM     14  O   SER A   3       6.522  82.868  36.013  0.00  0.00    -0.273 OA
BRANCH  11  15
ATOM     15  CA  SER A   3       7.261  85.156  35.887  0.00  0.00    +0.178 C 
BRANCH  15  17
ATOM     16  C   LYS A   2       7.280  87.566  35.681  0.00  0.00    +0.241 C 
ATOM     17  N   SER A   3       6.969  86.490  36.400  0.00  0.00    -0.295 N 
ATOM     18  H   SER A   3       6.517  86.601  37.330  0.00  0.00    +0.150 HD
ATOM     19  O   LYS A   2       7.801  87.492  34.564  0.00  0.00    -0.273 OA
BRANCH  16  20
ATOM     20  CA  LYS A   2       6.957  88.920  36.294  0.00  0.00    +0.149 C 
BRANCH  20  23
ATOM     21  C   LEU A   1       8.472  90.633  37.101  0.00  0.00    +0.238 C 
ATOM     22  O   LEU A   1       7.930  90.630  38.206  0.00  0.00    -0.274 OA
ATOM     23  N   LYS A   2       8.070  89.847  36.109  0.00  0.00    -0.297 N 
ATOM     24  H   LYS A   2       8.554  89.892  35.189  0.00  0.00    +0.150 HD
BRANCH  21  25
ATOM     25  CA  LEU A   1       9.644  91.578  36.816  0.00  0.00    +0.145 C 
BRANCH  25  26
ATOM     26  N   LEU A   1       9.319  92.816  37.509  0.00  0.00    -0.238 NA
ATOM     27  H   LEU A   1       9.145  92.784  38.534  0.00  0.00    +0.142 HD
ENDBRANCH  25  26
BRANCH  25  28
ATOM     28  CB  LEU A   1      10.943  90.989  37.371  0.00  0.00    +0.026 C 
BRANCH  28  29
ATOM     29  CG  LEU A   1      12.272  91.323  36.682  0.00  0.00    +0.002 C 
ATOM     30  CD2 LEU A   1      13.419  91.115  37.672  0.00  0.00    +0.000 C 
ATOM     31  CD1 LEU A   1      12.265  92.750  36.176  0.00  0.00    +0.000 C 
ENDBRANCH  28  29
ENDBRANCH  25  28
ENDBRANCH  21  25
ENDBRANCH  20  23
BRANCH  20  32
ATOM     32  CB  LYS A   2       5.686  89.485  35.655  0.00  0.00    +0.029 C 
BRANCH  32  33
ATOM     33  CG  LYS A   2       4.439  88.670  35.949  0.00  0.00    +0.000 C 
BRANCH  33  34
ATOM     34  CD  LYS A   2       3.220  89.272  35.279  0.00  0.00    -0.024 C 
BRANCH  34  35
ATOM     35  CE  LYS A   2       1.977  88.445  35.571  0.00  0.00    -0.086 C 
BRANCH  35  36
ATOM     36  NZ  LYS A   2       1.278  88.889  36.808  0.00  0.00    +0.380 N 
ATOM     37  HZ1 LYS A   2       1.922  88.800  37.620  0.00  0.00    -0.089 HD
ATOM     38  HZ2 LYS A   2       0.439  88.295  36.963  0.00  0.00    -0.089 HD
ATOM     39  HZ3 LYS A   2       0.987  89.882  36.703  0.00  0.00    -0.089 HD
ENDBRANCH  35  36
ENDBRANCH  34  35
ENDBRANCH  33  34
ENDBRANCH  32  33
ENDBRANCH  20  32
ENDBRANCH  16  20
ENDBRANCH  15  17
BRANCH  15  40
ATOM     40  CB  SER A   3       8.759  84.861  36.059  0.00  0.00    +0.166 C 
BRANCH  40  41
ATOM     41  OG  SER A   3       9.116  84.750  37.427  0.00  0.00    -0.380 OA
ATOM     42  H   SER A   3       8.909  85.600  37.891  0.00  0.00    +0.211 HD
ENDBRANCH  40  41
ENDBRANCH  15  40
ENDBRANCH  11  15
ENDBRANCH  10  12
BRANCH  10  43
ATOM     43  CB  TYR A   4       4.900  83.361  39.658  0.00  0.00    +0.055 C 
BRANCH  43  44
ATOM     44  CG  TYR A   4       6.057  82.604  40.261  0.00  0.00    -0.020 A 
ATOM     45  CD2 TYR A   4       5.845  81.504  41.085  0.00  0.00    -0.001 A 
ATOM     46  CE2 TYR A   4       6.920  80.795  41.631  0.00  0.00    +0.036 A 
ATOM     47  CZ  TYR A   4       8.213  81.192  41.348  0.00  0.00    +0.134 A 
ATOM     48  CE1 TYR A   4       8.442  82.281  40.531  0.00  0.00    +0.036 A 
ATOM     49  CD1 TYR A   4       7.369  82.981  39.994  0.00  0.00    -0.001 A 
BRANCH  47  50
ATOM     50  OH  TYR A   4       9.283  80.509  41.878  0.00  0.00    -0.506 OA
ATOM     51  HH  TYR A   4      10.126  80.929  41.572  0.00  0.00    +0.292 HD
ENDBRANCH  47  50
ENDBRANCH  43  44
ENDBRANCH  10  43
ENDBRANCH   6  10
ENDBRANCH   5   7
BRANCH   5  52
ATOM     52  CB  CYS A   5       1.430  80.871  36.057  0.00  0.00    +0.098 C 
ATOM     53  SG  CYS A   5      -0.237  80.350  35.628  0.00  0.00    -0.080 S 
ENDBRANCH   5  52
ENDBRANCH   1   5
BRANCH   2  54
ATOM     54  CA  ASN A   6      -0.277  80.207  40.469  0.00  0.00    +0.158 C 
BRANCH  54  55
ATOM     55  C   ASN A   6       0.962  80.157  41.372  0.00  0.00    +0.241 C 
ATOM     56  O   ASN A   6       1.471  81.203  41.790  0.00  0.00    -0.273 OA
ATOM     57  N   ASP A   7       1.475  78.965  41.651  0.00  0.00    -0.297 N 
ATOM     58  H   ASP A   7       1.035  78.107  41.263  0.00  0.00    +0.150 HD
BRANCH  57  59
ATOM     59  CA  ASP A   7       2.656  78.857  42.502  0.00  0.00    +0.160 C 
BRANCH  59  60
ATOM     60  C   ASP A   7       3.839  78.374  41.673  0.00  0.00    +0.241 C 
ATOM     61  O   ASP A   7       4.819  77.844  42.202  0.00  0.00    -0.273 OA
ATOM     62  N   GLN A   8       3.745  78.583  40.367  0.00  0.00    -0.297 N 
ATOM     63  H   GLN A   8       2.920  79.093  39.992  0.00  0.00    +0.150 HD
BRANCH  62  64
ATOM     64  CA  GLN A   8       4.771  78.114  39.447  0.00  0.00    +0.149 C 
BRANCH  64  65
ATOM     65  C   GLN A   8       5.510  79.175  38.631  0.00  0.00    +0.241 C 
ATOM     66  N   SER A   9       6.819  78.983  38.503  0.00  0.00    -0.295 N 
ATOM     67  H   SER A   9       7.249  78.161  38.972  0.00  0.00    +0.150 HD
ATOM     68  O   GLN A   8       4.911  80.123  38.123  0.00  0.00    -0.273 OA
BRANCH  66  69
ATOM     69  CA  SER A   9       7.677  79.873  37.735  0.00  0.00    +0.178 C 
BRANCH  69  70
ATOM     70  C   SER A   9       7.679  79.394  36.288  0.00  0.00    +0.243 C 
ATOM     71  O   SER A   9       8.061  78.254  36.007  0.00  0.00    -0.273 OA
ATOM     72  N   THR A  10       7.246  80.255  35.373  0.00  0.00    -0.295 N 
ATOM     73  H   THR A  10       6.918  81.195  35.673  0.00  0.00    +0.150 HD
BRANCH  72  74
ATOM     74  CA  THR A  10       7.221  79.908  33.956  0.00  0.00    +0.176 C 
BRANCH  74  75
ATOM     75  C   THR A  10       8.654  79.834  33.433  0.00  0.00    +0.243 C 
ATOM     76  N   GLY A  11       9.597  80.336  34.221  0.00  0.00    -0.296 N 
ATOM     77  H   GLY A  11       9.338  80.744  35.142  0.00  0.00    +0.150 HD
ATOM     78  O   THR A  10       8.902  79.337  32.338  0.00  0.00    -0.273 OA
BRANCH  76  79
ATOM     79  CA  GLY A  11      10.987  80.318  33.805  0.00  0.00    +0.163 C 
BRANCH  79  80
ATOM     80  C   GLY A  11      11.272  81.429  32.813  0.00  0.00    +0.229 C 
ATOM     81  O   GLY A  11      12.426  81.696  32.485  0.00  0.00    -0.286 OA
ENDBRANCH  79  80
ENDBRANCH  76  79
ENDBRANCH  74  75
BRANCH  74  82
ATOM     82  CB  THR A  10       6.470  80.963  33.142  0.00  0.00    +0.137 C 
ATOM     83  CG2 THR A  10       5.054  81.152  33.677  0.00  0.00    +0.034 C 
BRANCH  82  84
ATOM     84  OG1 THR A  10       7.173  82.206  33.232  0.00  0.00    -0.382 OA
ATOM     85  HG1 THR A  10       7.223  82.487  34.180  0.00  0.00    +0.210 HD
ENDBRANCH  82  84
ENDBRANCH  74  82
ENDBRANCH  72  74
ENDBRANCH  69  70
BRANCH  69  86
ATOM     86  CB  SER A   9       9.106  79.836  38.280  0.00  0.00    +0.166 C 
BRANCH  86  87
ATOM     87  OG  SER A   9      10.033  80.284  37.306  0.00  0.00    -0.380 OA
ATOM     88  H   SER A   9       9.815  81.215  37.048  0.00  0.00    +0.211 HD
ENDBRANCH  86  87
ENDBRANCH  69  86
ENDBRANCH  66  69
ENDBRANCH  64  65
BRANCH  64  89
ATOM     89  CB  GLN A   8       4.144  77.093  38.492  0.00  0.00    +0.039 C 
BRANCH  89  90
ATOM     90  CG  GLN A   8       5.094  76.549  37.451  0.00  0.00    +0.087 C 
BRANCH  90  91
ATOM     91  CD  GLN A   8       5.874  75.360  37.957  0.00  0.00    +0.219 C 
ATOM     92  OE1 GLN A   8       5.381  74.594  38.785  0.00  0.00    -0.275 OA
ATOM     93  NE2 GLN A   8       7.097  75.198  37.465  0.00  0.00    -0.329 N 
ATOM     94 HE21 GLN A   8       7.682  74.397  37.778  0.00  0.00    +0.145 HD
ATOM     95 HE22 GLN A   8       7.470  75.872  36.767  0.00  0.00    +0.145 HD
ENDBRANCH  90  91
ENDBRANCH  89  90
ENDBRANCH  64  89
ENDBRANCH  62  64
ENDBRANCH  59  60
BRANCH  59  96
ATOM     96  CB  ASP A   7       2.384  77.874  43.636  0.00  0.00    +0.143 C 
BRANCH  96  97
ATOM     97  CG  ASP A   7       2.356  76.437  43.160  0.00  0.00    +0.367 C 
ATOM     98  OD2 ASP A   7       2.607  75.533  43.985  0.00  0.00    -0.246 OA
ATOM     99  OD1 ASP A   7       2.090  76.210  41.959  0.00  0.00    -0.246 OA
ENDBRANCH  96  97
ENDBRANCH  59  96
ENDBRANCH  57  59
ENDBRANCH  54  55
BRANCH  54 100
ATOM    100  CB  ASN A   6      -0.704  78.797  40.030  0.00  0.00    +0.114 C 
BRANCH 100 101
ATOM    101  CG  ASN A   6      -1.974  78.808  39.193  0.00  0.00    +0.222 C 
ATOM    102  ND2 ASN A   6      -2.906  79.686  39.548  0.00  0.00    -0.329 N 
ATOM    103 HD21 ASN A   6      -2.748  80.311  40.364  0.00  0.00    +0.145 HD
ATOM    104 HD22 ASN A   6      -3.794  79.748  39.010  0.00  0.00    +0.145 HD
ATOM    105  OD1 ASN A   6      -2.111  78.045  38.236  0.00  0.00    -0.275 OA
ENDBRANCH 100 101
ENDBRANCH  54 100
ENDBRANCH   2  54
TORSDOF 46
REMARK  Name = ../refined-set-2016/1bzy/1bzy_pocket.pdb
REMARK  250 active torsions:
REMARK  status: ('A' for Active; 'I' for Inactive)
REMARK    1  A    between atoms: _1  and  _3
REMARK    2  A    between atoms: _3  and  _4
REMARK    3  A    between atoms: _3  and  _6
REMARK    4  A    between atoms: _9  and  _11
REMARK    5  A    between atoms: _11  and  _12
REMARK    6  A    between atoms: _11  and  _14
REMARK    7  A    between atoms: _14  and  _15
REMARK    8  A    between atoms: _18  and  _20
REMARK    9  A    between atoms: _20  and  _21
REMARK   10  A    between atoms: _20  and  _23
REMARK   11  A    between atoms: _23  and  _24
REMARK   12  A    between atoms: _24  and  _25
REMARK   13  A    between atoms: _25  and  _26
REMARK   14  A    between atoms: _26  and  _27
REMARK   15  A    between atoms: _31  and  _33
REMARK   16  A    between atoms: _33  and  _34
REMARK   17  A    between atoms: _36  and  _38
REMARK   18  A    between atoms: _38  and  _39
REMARK   19  A    between atoms: _41  and  _43
REMARK   20  A    between atoms: _43  and  _44
REMARK   21  A    between atoms: _43  and  _46
REMARK   22  A    between atoms: _46  and  _47
REMARK   23  A    between atoms: _52  and  _53
REMARK   24  A    between atoms: _55  and  _57
REMARK   25  A    between atoms: _57  and  _58
REMARK   26  A    between atoms: _57  and  _60
REMARK   27  A    between atoms: _60  and  _61
REMARK   28  A    between atoms: _64  and  _66
REMARK   29  A    between atoms: _66  and  _67
REMARK   30  A    between atoms: _66  and  _69
REMARK   31  A    between atoms: _69  and  _70
REMARK   32  A    between atoms: _70  and  _71
REMARK   33  A    between atoms: _71  and  _72
REMARK   34  A    between atoms: _72  and  _73
REMARK   35  A    between atoms: _77  and  _79
REMARK   36  A    between atoms: _79  and  _80
REMARK   37  A    between atoms: _79  and  _82
REMARK   38  A    between atoms: _82  and  _83
REMARK   39  A    between atoms: _85  and  _87
REMARK   40  A    between atoms: _87  and  _88
REMARK   41  A    between atoms: _87  and  _90
REMARK   42  A    between atoms: _90  and  _91
REMARK   43  A    between atoms: _96  and  _97
REMARK   44  A    between atoms: _99  and  _101
REMARK   45  A    between atoms: _101  and  _102
REMARK   46  A    between atoms: _101  and  _104
REMARK   47  A    between atoms: _106  and  _108
REMARK   48  A    between atoms: _108  and  _109
REMARK   49  A    between atoms: _108  and  _111
REMARK   50  A    between atoms: _111  and  _112
REMARK   51  A    between atoms: _117  and  _119
REMARK   52  A    between atoms: _119  and  _120
REMARK   53  A    between atoms: _119  and  _122
REMARK   54  A    between atoms: _122  and  _123
REMARK   55  A    between atoms: _126  and  _128
REMARK   56  A    between atoms: _128  and  _129
REMARK   57  A    between atoms: _128  and  _131
REMARK   58  A    between atoms: _131  and  _132
REMARK   59  A    between atoms: _132  and  _133
REMARK   60  A    between atoms: _138  and  _140
REMARK   61  A    between atoms: _140  and  _141
REMARK   62  A    between atoms: _140  and  _143
REMARK   63  A    between atoms: _143  and  _144
REMARK   64  A    between atoms: _146  and  _148
REMARK   65  A    between atoms: _148  and  _149
REMARK   66  A    between atoms: _148  and  _151
REMARK   67  A    between atoms: _151  and  _152
REMARK   68  A    between atoms: _155  and  _157
REMARK   69  A    between atoms: _157  and  _158
REMARK   70  A    between atoms: _160  and  _162
REMARK   71  A    between atoms: _162  and  _163
REMARK   72  A    between atoms: _162  and  _165
REMARK   73  A    between atoms: _165  and  _166
REMARK   74  A    between atoms: _169  and  _171
REMARK   75  A    between atoms: _171  and  _172
REMARK   76  A    between atoms: _171  and  _174
REMARK   77  A    between atoms: _174  and  _175
REMARK   78  A    between atoms: _175  and  _176
REMARK   79  A    between atoms: _179  and  _181
REMARK   80  A    between atoms: _181  and  _182
REMARK   81  A    between atoms: _181  and  _184
REMARK   82  A    between atoms: _184  and  _185
REMARK   83  A    between atoms: _188  and  _190
REMARK   84  A    between atoms: _190  and  _191
REMARK   85  A    between atoms: _190  and  _193
REMARK   86  A    between atoms: _193  and  _194
REMARK   87  A    between atoms: _197  and  _199
REMARK   88  A    between atoms: _199  and  _200
REMARK   89  A    between atoms: _199  and  _202
REMARK   90  A    between atoms: _202  and  _203
REMARK   91  A    between atoms: _206  and  _208
REMARK   92  A    between atoms: _208  and  _209
REMARK   93  A    between atoms: _208  and  _211
REMARK   94  A    between atoms: _211  and  _212
REMARK   95  A    between atoms: _215  and  _217
REMARK   96  A    between atoms: _217  and  _218
REMARK   97  A    between atoms: _217  and  _220
REMARK   98  A    between atoms: _220  and  _221
REMARK   99  A    between atoms: _224  and  _226
REMARK  100  A    between atoms: _226  and  _227
REMARK  101  A    between atoms: _229  and  _231
REMARK  102  A    between atoms: _231  and  _232
REMARK  103  A    between atoms: _231  and  _234
REMARK  104  A    between atoms: _234  and  _235
REMARK  105  A    between atoms: _235  and  _236
REMARK  106  A    between atoms: _236  and  _237
REMARK  107  A    between atoms: _237  and  _238
REMARK  108  A    between atoms: _242  and  _244
REMARK  109  A    between atoms: _244  and  _245
REMARK  110  A    between atoms: _244  and  _247
REMARK  111  A    between atoms: _247  and  _248
REMARK  112  A    between atoms: _251  and  _253
REMARK  113  A    between atoms: _253  and  _254
REMARK  114  A    between atoms: _253  and  _256
REMARK  115  A    between atoms: _256  and  _257
REMARK  116  A    between atoms: _257  and  _258
REMARK  117  A    between atoms: _260  and  _262
REMARK  118  A    between atoms: _262  and  _263
REMARK  119  A    between atoms: _262  and  _265
REMARK  120  A    between atoms: _265  and  _266
REMARK  121  A    between atoms: _266  and  _267
REMARK  122  A    between atoms: _272  and  _274
REMARK  123  A    between atoms: _274  and  _275
REMARK  124  A    between atoms: _274  and  _277
REMARK  125  A    between atoms: _277  and  _278
REMARK  126  A    between atoms: _281  and  _283
REMARK  127  A    between atoms: _283  and  _284
REMARK  128  A    between atoms: _283  and  _286
REMARK  129  A    between atoms: _286  and  _287
REMARK  130  A    between atoms: _290  and  _292
REMARK  131  A    between atoms: _292  and  _293
REMARK  132  A    between atoms: _292  and  _295
REMARK  133  A    between atoms: _295  and  _296
REMARK  134  A    between atoms: _298  and  _300
REMARK  135  A    between atoms: _300  and  _301
REMARK  136  A    between atoms: _300  and  _303
REMARK  137  A    between atoms: _303  and  _304
REMARK  138  A    between atoms: _307  and  _309
REMARK  139  A    between atoms: _309  and  _310
REMARK  140  A    between atoms: _309  and  _312
REMARK  141  A    between atoms: _312  and  _313
REMARK  142  A    between atoms: _313  and  _314
REMARK  143  A    between atoms: _314  and  _315
REMARK  144  A    between atoms: _315  and  _316
REMARK  145  A    between atoms: _320  and  _322
REMARK  146  A    between atoms: _322  and  _323
REMARK  147  A    between atoms: _322  and  _325
REMARK  148  A    between atoms: _325  and  _326
REMARK  149  A    between atoms: _329  and  _331
REMARK  150  A    between atoms: _331  and  _332
REMARK  151  A    between atoms: _331  and  _334
REMARK  152  A    between atoms: _334  and  _335
REMARK  153  A    between atoms: _335  and  _336
REMARK  154  A    between atoms: _336  and  _337
REMARK  155  A    between atoms: _346  and  _348
REMARK  156  A    between atoms: _348  and  _349
REMARK  157  A    between atoms: _348  and  _351
REMARK  158  A    between atoms: _351  and  _352
REMARK  159  A    between atoms: _354  and  _356
REMARK  160  A    between atoms: _356  and  _357
REMARK  161  A    between atoms: _356  and  _359
REMARK  162  A    between atoms: _362  and  _364
REMARK  163  A    between atoms: _364  and  _365
REMARK  164  A    between atoms: _364  and  _367
REMARK  165  A    between atoms: _367  and  _368
REMARK  166  A    between atoms: _373  and  _374
REMARK  167  A    between atoms: _376  and  _378
REMARK  168  A    between atoms: _378  and  _379
REMARK  169  A    between atoms: _378  and  _381
REMARK  170  A    between atoms: _381  and  _382
REMARK  171  A    between atoms: _386  and  _387
REMARK  172  A    between atoms: _392  and  _394
REMARK  173  A    between atoms: _394  and  _395
REMARK  174  A    between atoms: _394  and  _397
REMARK  175  A    between atoms: _397  and  _398
REMARK  176  A    between atoms: _401  and  _403
REMARK  177  A    between atoms: _403  and  _404
REMARK  178  A    between atoms: _403  and  _406
REMARK  179  A    between atoms: _406  and  _407
REMARK  180  A    between atoms: _407  and  _408
REMARK  181  A    between atoms: _408  and  _409
REMARK  182  A    between atoms: _409  and  _410
REMARK  183  A    between atoms: _414  and  _416
REMARK  184  A    between atoms: _416  and  _417
REMARK  185  A    between atoms: _416  and  _419
REMARK  186  A    between atoms: _419  and  _420
REMARK  187  A    between atoms: _426  and  _428
REMARK  188  A    between atoms: _428  and  _429
REMARK  189  A    between atoms: _428  and  _431
REMARK  190  A    between atoms: _434  and  _436
REMARK  191  A    between atoms: _436  and  _437
REMARK  192  A    between atoms: _436  and  _439
REMARK  193  A    between atoms: _442  and  _444
REMARK  194  A    between atoms: _444  and  _445
REMARK  195  A    between atoms: _447  and  _449
REMARK  196  A    between atoms: _449  and  _450
REMARK  197  A    between atoms: _449  and  _452
REMARK  198  A    between atoms: _452  and  _453
REMARK  199  A    between atoms: _458  and  _459
REMARK  200  A    between atoms: _461  and  _463
REMARK  201  A    between atoms: _463  and  _464
REMARK  202  A    between atoms: _467  and  _469
REMARK  203  A    between atoms: _469  and  _470
REMARK  204  A    between atoms: _469  and  _472
REMARK  205  A    between atoms: _472  and  _473
REMARK  206  A    between atoms: _476  and  _478
REMARK  207  A    between atoms: _478  and  _479
REMARK  208  A    between atoms: _478  and  _481
REMARK  209  A    between atoms: _481  and  _482
REMARK  210  A    between atoms: _482  and  _483
REMARK  211  A    between atoms: _483  and  MG_588
REMARK  212  A    between atoms: _485  and  _487
REMARK  213  A    between atoms: _487  and  _488
REMARK  214  A    between atoms: _487  and  _490
REMARK  215  A    between atoms: _490  and  _491
REMARK  216  A    between atoms: _496  and  _497
REMARK  217  A    between atoms: _499  and  _501
REMARK  218  A    between atoms: _501  and  _502
REMARK  219  A    between atoms: _501  and  _504
REMARK  220  A    between atoms: _504  and  _505
REMARK  221  A    between atoms: _510  and  _512
REMARK  222  A    between atoms: _512  and  _513
REMARK  223  A    between atoms: _512  and  _515
REMARK  224  A    between atoms: _515  and  _516
REMARK  225  A    between atoms: _516  and  _517
REMARK  226  A    between atoms: _520  and  _522
REMARK  227  A    between atoms: _522  and  _523
REMARK  228  A    between atoms: _522  and  _525
REMARK  229  A    between atoms: _525  and  _526
REMARK  230  A    between atoms: _531  and  _532
REMARK  231  A    between atoms: _534  and  _536
REMARK  232  A    between atoms: _536  and  _537
REMARK  233  A    between atoms: _536  and  _539
REMARK  234  A    between atoms: _539  and  _540
REMARK  235  A    between atoms: _546  and  _548
REMARK  236  A    between atoms: _548  and  _549
REMARK  237  A    between atoms: _548  and  _551
REMARK  238  A    between atoms: _551  and  _552
REMARK  239  A    between atoms: _552  and  _553
REMARK  240  A    between atoms: _553  and  _554
REMARK  241  A    between atoms: _563  and  _565
REMARK  242  A    between atoms: _565  and  _566
REMARK  243  A    between atoms: _565  and  _568
REMARK  244  A    between atoms: _571  and  _573
REMARK  245  A    between atoms: _573  and  _574
REMARK  246  A    between atoms: _573  and  _576
REMARK  247  A    between atoms: _578  and  _580
REMARK  248  A    between atoms: _580  and  _581
REMARK  249  A    between atoms: _580  and  _583
REMARK  250  A    between atoms: _583  and  _584
REMARK                            x       y       z     vdW  Elec       q    Type
REMARK                         _______ _______ _______ _____ _____    ______ ____
ROOT
ATOM      1  CA  ILE A   1      10.914  86.465  33.192  0.00  0.00    +0.133 C 
ENDROOT
BRANCH   1   2
ATOM      2  N   ILE A   1      11.083  85.193  32.506  0.00  0.00    -0.239 NA
ATOM      3  H   ILE A   1      12.040  84.816  32.352  0.00  0.00    +0.142 HD
ENDBRANCH   1   2
BRANCH   1   4
ATOM      4  CB  ILE A   1      12.170  86.809  34.041  0.00  0.00    +0.023 C 
ATOM      5  CG2 ILE A   1      12.148  88.278  34.445  0.00  0.00    +0.002 C 
BRANCH   4   6
ATOM      6  CG1 ILE A   1      12.188  85.972  35.326  0.00  0.00    +0.002 C 
ATOM      7  CD1 ILE A   1      12.460  84.492  35.111  0.00  0.00    +0.000 C 
ENDBRANCH   4   6
ENDBRANCH   1   4
BRANCH   1   8
ATOM      8  C   ILE A   1      10.619  87.610  32.223  0.00  0.00    +0.224 C 
ATOM      9  O   ILE A   1      11.250  87.740  31.173  0.00  0.00    -0.287 OA
ENDBRANCH   1   8
TORSDOF 4
REMARK  Name = ../refined-set-2016/1bzy/1bzy_pocket.pdb
REMARK  250 active torsions:
REMARK  status: ('A' for Active; 'I' for Inactive)
REMARK    1  A    between atoms: _1  and  _3
REMARK    2  A    between atoms: _3  and  _4
REMARK    3  A    between atoms: _3  and  _6
REMARK    4  A    between atoms: _9  and  _11
REMARK    5  A    between atoms: _11  and  _12
REMARK    6  A    between atoms: _11  and  _14
REMARK    7  A    between atoms: _14  and  _15
REMARK    8  A    between atoms: _18  and  _20
REMARK    9  A    between atoms: _20  and  _21
REMARK   10  A    between atoms: _20  and  _23
REMARK   11  A    between atoms: _23  and  _24
REMARK   12  A    between atoms: _24  and  _25
REMARK   13  A    between atoms: _25  and  _26
REMARK   14  A    between atoms: _26  and  _27
REMARK   15  A    between atoms: _31  and  _33
REMARK   16  A    between atoms: _33  and  _34
REMARK   17  A    between atoms: _36  and  _38
REMARK   18  A    between atoms: _38  and  _39
REMARK   19  A    between atoms: _41  and  _43
REMARK   20  A    between atoms: _43  and  _44
REMARK   21  A    between atoms: _43  and  _46
REMARK   22  A    between atoms: _46  and  _47
REMARK   23  A    between atoms: _52  and  _53
REMARK   24  A    between atoms: _55  and  _57
REMARK   25  A    between atoms: _57  and  _58
REMARK   26  A    between atoms: _57  and  _60
REMARK   27  A    between atoms: _60  and  _61
REMARK   28  A    between atoms: _64  and  _66
REMARK   29  A    between atoms: _66  and  _67
REMARK   30  A    between atoms: _66  and  _69
REMARK   31  A    between atoms: _69  and  _70
REMARK   32  A    between atoms: _70  and  _71
REMARK   33  A    between atoms: _71  and  _72
REMARK   34  A    between atoms: _72  and  _73
REMARK   35  A    between atoms: _77  and  _79
REMARK   36  A    between atoms: _79  and  _80
REMARK   37  A    between atoms: _79  and  _82
REMARK   38  A    between atoms: _82  and  _83
REMARK   39  A    between atoms: _85  and  _87
REMARK   40  A    between atoms: _87  and  _88
REMARK   41  A    between atoms: _87  and  _90
REMARK   42  A    between atoms: _90  and  _91
REMARK   43  A    between atoms: _96  and  _97
REMARK   44  A    between atoms: _99  and  _101
REMARK   45  A    between atoms: _101  and  _102
REMARK   46  A    between atoms: _101  and  _104
REMARK   47  A    between atoms: _106  and  _108
REMARK   48  A    between atoms: _108  and  _109
REMARK   49  A    between atoms: _108  and  _111
REMARK   50  A    between atoms: _111  and  _112
REMARK   51  A    between atoms: _117  and  _119
REMARK   52  A    between atoms: _119  and  _120
REMARK   53  A    between atoms: _119  and  _122
REMARK   54  A    between atoms: _122  and  _123
REMARK   55  A    between atoms: _126  and  _128
REMARK   56  A    between atoms: _128  and  _129
REMARK   57  A    between atoms: _128  and  _131
REMARK   58  A    between atoms: _131  and  _132
REMARK   59  A    between atoms: _132  and  _133
REMARK   60  A    between atoms: _138  and  _140
REMARK   61  A    between atoms: _140  and  _141
REMARK   62  A    between atoms: _140  and  _143
REMARK   63  A    between atoms: _143  and  _144
REMARK   64  A    between atoms: _146  and  _148
REMARK   65  A    between atoms: _148  and  _149
REMARK   66  A    between atoms: _148  and  _151
REMARK   67  A    between atoms: _151  and  _152
REMARK   68  A    between atoms: _155  and  _157
REMARK   69  A    between atoms: _157  and  _158
REMARK   70  A    between atoms: _160  and  _162
REMARK   71  A    between atoms: _162  and  _163
REMARK   72  A    between atoms: _162  and  _165
REMARK   73  A    between atoms: _165  and  _166
REMARK   74  A    between atoms: _169  and  _171
REMARK   75  A    between atoms: _171  and  _172
REMARK   76  A    between atoms: _171  and  _174
REMARK   77  A    between atoms: _174  and  _175
REMARK   78  A    between atoms: _175  and  _176
REMARK   79  A    between atoms: _179  and  _181
REMARK   80  A    between atoms: _181  and  _182
REMARK   81  A    between atoms: _181  and  _184
REMARK   82  A    between atoms: _184  and  _185
REMARK   83  A    between atoms: _188  and  _190
REMARK   84  A    between atoms: _190  and  _191
REMARK   85  A    between atoms: _190  and  _193
REMARK   86  A    between atoms: _193  and  _194
REMARK   87  A    between atoms: _197  and  _199
REMARK   88  A    between atoms: _199  and  _200
REMARK   89  A    between atoms: _199  and  _202
REMARK   90  A    between atoms: _202  and  _203
REMARK   91  A    between atoms: _206  and  _208
REMARK   92  A    between atoms: _208  and  _209
REMARK   93  A    between atoms: _208  and  _211
REMARK   94  A    between atoms: _211  and  _212
REMARK   95  A    between atoms: _215  and  _217
REMARK   96  A    between atoms: _217  and  _218
REMARK   97  A    between atoms: _217  and  _220
REMARK   98  A    between atoms: _220  and  _221
REMARK   99  A    between atoms: _224  and  _226
REMARK  100  A    between atoms: _226  and  _227
REMARK  101  A    between atoms: _229  and  _231
REMARK  102  A    between atoms: _231  and  _232
REMARK  103  A    between atoms: _231  and  _234
REMARK  104  A    between atoms: _234  and  _235
REMARK  105  A    between atoms: _235  and  _236
REMARK  106  A    between atoms: _236  and  _237
REMARK  107  A    between atoms: _237  and  _238
REMARK  108  A    between atoms: _242  and  _244
REMARK  109  A    between atoms: _244  and  _245
REMARK  110  A    between atoms: _244  and  _247
REMARK  111  A    between atoms: _247  and  _248
REMARK  112  A    between atoms: _251  and  _253
REMARK  113  A    between atoms: _253  and  _254
REMARK  114  A    between atoms: _253  and  _256
REMARK  115  A    between atoms: _256  and  _257
REMARK  116  A    between atoms: _257  and  _258
REMARK  117  A    between atoms: _260  and  _262
REMARK  118  A    between atoms: _262  and  _263
REMARK  119  A    between atoms: _262  and  _265
REMARK  120  A    between atoms: _265  and  _266
REMARK  121  A    between atoms: _266  and  _267
REMARK  122  A    between atoms: _272  and  _274
REMARK  123  A    between atoms: _274  and  _275
REMARK  124  A    between atoms: _274  and  _277
REMARK  125  A    between atoms: _277  and  _278
REMARK  126  A    between atoms: _281  and  _283
REMARK  127  A    between atoms: _283  and  _284
REMARK  128  A    between atoms: _283  and  _286
REMARK  129  A    between atoms: _286  and  _287
REMARK  130  A    between atoms: _290  and  _292
REMARK  131  A    between atoms: _292  and  _293
REMARK  132  A    between atoms: _292  and  _295
REMARK  133  A    between atoms: _295  and  _296
REMARK  134  A    between atoms: _298  and  _300
REMARK  135  A    between atoms: _300  and  _301
REMARK  136  A    between atoms: _300  and  _303
REMARK  137  A    between atoms: _303  and  _304
REMARK  138  A    between atoms: _307  and  _309
REMARK  139  A    between atoms: _309  and  _310
REMARK  140  A    between atoms: _309  and  _312
REMARK  141  A    between atoms: _312  and  _313
REMARK  142  A    between atoms: _313  and  _314
REMARK  143  A    between atoms: _314  and  _315
REMARK  144  A    between atoms: _315  and  _316
REMARK  145  A    between atoms: _320  and  _322
REMARK  146  A    between atoms: _322  and  _323
REMARK  147  A    between atoms: _322  and  _325
REMARK  148  A    between atoms: _325  and  _326
REMARK  149  A    between atoms: _329  and  _331
REMARK  150  A    between atoms: _331  and  _332
REMARK  151  A    between atoms: _331  and  _334
REMARK  152  A    between atoms: _334  and  _335
REMARK  153  A    between atoms: _335  and  _336
REMARK  154  A    between atoms: _336  and  _337
REMARK  155  A    between atoms: _346  and  _348
REMARK  156  A    between atoms: _348  and  _349
REMARK  157  A    between atoms: _348  and  _351
REMARK  158  A    between atoms: _351  and  _352
REMARK  159  A    between atoms: _354  and  _356
REMARK  160  A    between atoms: _356  and  _357
REMARK  161  A    between atoms: _356  and  _359
REMARK  162  A    between atoms: _362  and  _364
REMARK  163  A    between atoms: _364  and  _365
REMARK  164  A    between atoms: _364  and  _367
REMARK  165  A    between atoms: _367  and  _368
REMARK  166  A    between atoms: _373  and  _374
REMARK  167  A    between atoms: _376  and  _378
REMARK  168  A    between atoms: _378  and  _379
REMARK  169  A    between atoms: _378  and  _381
REMARK  170  A    between atoms: _381  and  _382
REMARK  171  A    between atoms: _386  and  _387
REMARK  172  A    between atoms: _392  and  _394
REMARK  173  A    between atoms: _394  and  _395
REMARK  174  A    between atoms: _394  and  _397
REMARK  175  A    between atoms: _397  and  _398
REMARK  176  A    between atoms: _401  and  _403
REMARK  177  A    between atoms: _403  and  _404
REMARK  178  A    between atoms: _403  and  _406
REMARK  179  A    between atoms: _406  and  _407
REMARK  180  A    between atoms: _407  and  _408
REMARK  181  A    between atoms: _408  and  _409
REMARK  182  A    between atoms: _409  and  _410
REMARK  183  A    between atoms: _414  and  _416
REMARK  184  A    between atoms: _416  and  _417
REMARK  185  A    between atoms: _416  and  _419
REMARK  186  A    between atoms: _419  and  _420
REMARK  187  A    between atoms: _426  and  _428
REMARK  188  A    between atoms: _428  and  _429
REMARK  189  A    between atoms: _428  and  _431
REMARK  190  A    between atoms: _434  and  _436
REMARK  191  A    between atoms: _436  and  _437
REMARK  192  A    between atoms: _436  and  _439
REMARK  193  A    between atoms: _442  and  _444
REMARK  194  A    between atoms: _444  and  _445
REMARK  195  A    between atoms: _447  and  _449
REMARK  196  A    between atoms: _449  and  _450
REMARK  197  A    between atoms: _449  and  _452
REMARK  198  A    between atoms: _452  and  _453
REMARK  199  A    between atoms: _458  and  _459
REMARK  200  A    between atoms: _461  and  _463
REMARK  201  A    between atoms: _463  and  _464
REMARK  202  A    between atoms: _467  and  _469
REMARK  203  A    between atoms: _469  and  _470
REMARK  204  A    between atoms: _469  and  _472
REMARK  205  A    between atoms: _472  and  _473
REMARK  206  A    between atoms: _476  and  _478
REMARK  207  A    between atoms: _478  and  _479
REMARK  208  A    between atoms: _478  and  _481
REMARK  209  A    between atoms: _481  and  _482
REMARK  210  A    between atoms: _482  and  _483
REMARK  211  A    between atoms: _483  and  MG_588
REMARK  212  A    between atoms: _485  and  _487
REMARK  213  A    between atoms: _487  and  _488
REMARK  214  A    between atoms: _487  and  _490
REMARK  215  A    between atoms: _490  and  _491
REMARK  216  A    between atoms: _496  and  _497
REMARK  217  A    between atoms: _499  and  _501
REMARK  218  A    between atoms: _501  and  _502
REMARK  219  A    between atoms: _501  and  _504
REMARK  220  A    between atoms: _504  and  _505
REMARK  221  A    between atoms: _510  and  _512
REMARK  222  A    between atoms: _512  and  _513
REMARK  223  A    between atoms: _512  and  _515
REMARK  224  A    between atoms: _515  and  _516
REMARK  225  A    between atoms: _516  and  _517
REMARK  226  A    between atoms: _520  and  _522
REMARK  227  A    between atoms: _522  and  _523
REMARK  228  A    between atoms: _522  and  _525
REMARK  229  A    between atoms: _525  and  _526
REMARK  230  A    between atoms: _531  and  _532
REMARK  231  A    between atoms: _534  and  _536
REMARK  232  A    between atoms: _536  and  _537
REMARK  233  A    between atoms: _536  and  _539
REMARK  234  A    between atoms: _539  and  _540
REMARK  235  A    between atoms: _546  and  _548
REMARK  236  A    between atoms: _548  and  _549
REMARK  237  A    between atoms: _548  and  _551
REMARK  238  A    between atoms: _551  and  _552
REMARK  239  A    between atoms: _552  and  _553
REMARK  240  A    between atoms: _553  and  _554
REMARK  241  A    between atoms: _563  and  _565
REMARK  242  A    between atoms: _565  and  _566
REMARK  243  A    between atoms: _565  and  _568
REMARK  244  A    between atoms: _571  and  _573
REMARK  245  A    between atoms: _573  and  _574
REMARK  246  A    between atoms: _573  and  _576
REMARK  247  A    between atoms: _578  and  _580
REMARK  248  A    between atoms: _580  and  _581
REMARK  249  A    between atoms: _580  and  _583
REMARK  250  A    between atoms: _583  and  _584
REMARK                            x       y       z     vdW  Elec       q    Type
REMARK                         _______ _______ _______ _____ _____    ______ ____
ROOT
ATOM      1  C   GLY A   7      16.777  82.692  40.231  0.00  0.00    +0.243 C 
ATOM      2  O   GLY A   7      17.602  83.554  39.929  0.00  0.00    -0.273 OA
ATOM      3  N   LYS A   8      15.829  82.286  39.396  0.00  0.00    -0.297 N 
ATOM      4  H   LYS A   8      15.141  81.575  39.717  0.00  0.00    +0.150 HD
ENDROOT
BRANCH   3   5
ATOM      5  CA  LYS A   8      15.727  82.811  38.038  0.00  0.00    +0.149 C 
BRANCH   5   6
ATOM      6  C   LYS A   8      15.552  84.324  37.961  0.00  0.00    +0.241 C 
ATOM      7  N   THR A   9      14.651  84.858  38.771  0.00  0.00    -0.295 N 
ATOM      8  H   THR A   9      14.123  84.241  39.421  0.00  0.00    +0.150 HD
ATOM      9  O   LYS A   8      16.211  84.992  37.172  0.00  0.00    -0.273 OA
BRANCH   7  10
ATOM     10  CA  THR A   9      14.382  86.292  38.772  0.00  0.00    +0.176 C 
BRANCH  10  11
ATOM     11  C   THR A   9      15.590  87.146  39.137  0.00  0.00    +0.243 C 
ATOM     12  N   MET A  10      16.223  86.835  40.263  0.00  0.00    -0.297 N 
ATOM     13  H   MET A  10      15.884  86.033  40.832  0.00  0.00    +0.150 HD
ATOM     14  O   THR A   9      15.930  88.084  38.415  0.00  0.00    -0.273 OA
BRANCH  12  15
ATOM     15  CA  MET A  10      17.383  87.594  40.718  0.00  0.00    +0.149 C 
BRANCH  15  16
ATOM     16  C   MET A  10      18.559  87.412  39.769  0.00  0.00    +0.241 C 
ATOM     17  O   MET A  10      19.396  88.302  39.608  0.00  0.00    -0.273 OA
ATOM     18  N   GLN A  11      18.615  86.245  39.145  0.00  0.00    -0.297 N 
ATOM     19  H   GLN A  11      17.882  85.532  39.336  0.00  0.00    +0.150 HD
BRANCH  18  20
ATOM     20  CA  GLN A  11      19.674  85.937  38.201  0.00  0.00    +0.149 C 
BRANCH  20  21
ATOM     21  C   GLN A  11      19.530  86.886  37.024  0.00  0.00    +0.241 C 
ATOM     22  O   GLN A  11      20.495  87.511  36.582  0.00  0.00    -0.273 OA
ATOM     23  N   THR A  12      18.305  87.007  36.534  0.00  0.00    -0.295 N 
ATOM     24  H   THR A  12      17.529  86.467  36.967  0.00  0.00    +0.150 HD
BRANCH  23  25
ATOM     25  CA  THR A  12      18.022  87.877  35.405  0.00  0.00    +0.176 C 
BRANCH  25  26
ATOM     26  C   THR A  12      18.221  89.338  35.766  0.00  0.00    +0.243 C 
ATOM     27  N   LEU A  13      17.827  89.703  36.979  0.00  0.00    -0.298 N 
ATOM     28  H   LEU A  13      17.422  88.994  37.622  0.00  0.00    +0.150 HD
ATOM     29  O   THR A  12      18.720  90.126  34.960  0.00  0.00    -0.273 OA
BRANCH  27  30
ATOM     30  CA  LEU A  13      17.955  91.084  37.421  0.00  0.00    +0.137 C 
BRANCH  30  31
ATOM     31  C   LEU A  13      19.402  91.543  37.569  0.00  0.00    +0.227 C 
ATOM     32  O   LEU A  13      19.758  92.633  37.135  0.00  0.00    -0.286 OA
ENDBRANCH  30  31
BRANCH  30  33
ATOM     33  CB  LEU A  13      17.222  91.282  38.750  0.00  0.00    +0.028 C 
BRANCH  33  34
ATOM     34  CG  LEU A  13      17.153  92.731  39.237  0.00  0.00    +0.002 C 
ATOM     35  CD2 LEU A  13      16.258  92.810  40.440  0.00  0.00    +0.000 C 
ATOM     36  CD1 LEU A  13      16.607  93.631  38.133  0.00  0.00    +0.000 C 
ENDBRANCH  33  34
ENDBRANCH  30  33
ENDBRANCH  27  30
ENDBRANCH  25  26
BRANCH  25  37
ATOM     37  CB  THR A  12      16.574  87.689  34.907  0.00  0.00    +0.137 C 
ATOM     38  CG2 THR A  12      16.280  88.635  33.765  0.00  0.00    +0.034 C 
BRANCH  37  39
ATOM     39  OG1 THR A  12      16.397  86.341  34.456  0.00  0.00    -0.382 OA
ATOM     40  HG1 THR A  12      17.028  86.156  33.716  0.00  0.00    +0.210 HD
ENDBRANCH  37  39
ENDBRANCH  25  37
ENDBRANCH  23  25
ENDBRANCH  20  21
BRANCH  20  41
ATOM     41  CB  GLN A  11      19.522  84.496  37.735  0.00  0.00    +0.039 C 
BRANCH  41  42
ATOM     42  CG  GLN A  11      20.727  83.924  37.046  0.00  0.00    +0.087 C 
BRANCH  42  43
ATOM     43  CD  GLN A  11      20.424  82.582  36.427  0.00  0.00    +0.219 C 
ATOM     44  NE2 GLN A  11      20.590  81.519  37.206  0.00  0.00    -0.329 N 
ATOM     45 HE21 GLN A  11      20.922  81.638  38.184  0.00  0.00    +0.145 HD
ATOM     46 HE22 GLN A  11      20.388  80.568  36.837  0.00  0.00    +0.145 HD
ATOM     47  OE1 GLN A  11      20.035  82.499  35.265  0.00  0.00    -0.275 OA
ENDBRANCH  42  43
ENDBRANCH  41  42
ENDBRANCH  20  41
ENDBRANCH  18  20
ENDBRANCH  15  16
BRANCH  15  48
ATOM     48  CB  MET A  10      17.782  87.156  42.130  0.00  0.00    +0.041 C 
BRANCH  48  49
ATOM     49  CG  MET A  10      18.811  88.074  42.774  0.00  0.00    +0.060 C 
BRANCH  49  50
ATOM     50  SD  MET A  10      18.293  89.803  42.727  0.00  0.00    -0.139 S 
ATOM     51  CE  MET A  10      16.686  89.694  43.518  0.00  0.00    +0.069 C 
ENDBRANCH  49  50
ENDBRANCH  48  49
ENDBRANCH  15  48
ENDBRANCH  12  15
ENDBRANCH  10  11
BRANCH  10  52
ATOM     52  CB  THR A   9      13.236  86.633  39.737  0.00  0.00    +0.137 C 
ATOM     53  CG2 THR A   9      13.045  88.142  39.833  0.00  0.00    +0.034 C 
BRANCH  52  54
ATOM     54  OG1 THR A   9      12.024  86.034  39.266  0.00  0.00    -0.382 OA
ATOM     55  HG1 THR A   9      12.138  85.052  39.222  0.00  0.00    +0.210 HD
ENDBRANCH  52  54
ENDBRANCH  10  52
ENDBRANCH   7  10
ENDBRANCH   5   6
BRANCH   5  56
ATOM     56  CB  LYS A   8      14.569  82.130  37.311  0.00  0.00    +0.029 C 
BRANCH  56  57
ATOM     57  CG  LYS A   8      14.853  81.806  35.855  0.00  0.00    +0.000 C 
BRANCH  57  58
ATOM     58  CD  LYS A   8      15.760  80.585  35.715  0.00  0.00    -0.024 C 
BRANCH  58  59
ATOM     59  CE  LYS A   8      15.302  79.433  36.597  0.00  0.00    -0.086 C 
BRANCH  59  60
ATOM     60  NZ  LYS A   8      14.870  78.264  35.790  0.00  0.00    +0.380 N 
ATOM     61  HZ1 LYS A   8      14.565  77.499  36.425  0.00  0.00    -0.089 HD
ATOM     62  HZ2 LYS A   8      15.665  77.935  35.206  0.00  0.00    -0.089 HD
ATOM     63  HZ3 LYS A   8      14.078  78.542  35.175  0.00  0.00    -0.089 HD
ENDBRANCH  59  60
ENDBRANCH  58  59
ENDBRANCH  57  58
ENDBRANCH  56  57
ENDBRANCH   5  56
ENDBRANCH   3   5
BRANCH   1  64
ATOM     64  CA  GLY A   7      16.782  82.040  41.606  0.00  0.00    +0.176 C 
BRANCH  64  66
ATOM     65  C   THR A   6      15.691  79.870  41.578  0.00  0.00    +0.243 C 
ATOM     66  N   GLY A   7      15.636  81.174  41.836  0.00  0.00    -0.295 N 
ATOM     67  H   GLY A   7      14.756  81.583  42.210  0.00  0.00    +0.150 HD
ATOM     68  O   THR A   6      16.691  79.314  41.126  0.00  0.00    -0.273 OA
BRANCH  65  69
ATOM     69  CA  THR A   6      14.421  79.077  41.861  0.00  0.00    +0.176 C 
BRANCH  69  72
ATOM     70  C   ASP A   5      13.845  79.834  44.090  0.00  0.00    +0.241 C 
ATOM     71  O   ASP A   5      14.802  79.228  44.565  0.00  0.00    -0.273 OA
ATOM     72  N   THR A   6      13.571  79.824  42.789  0.00  0.00    -0.295 N 
ATOM     73  H   THR A   6      12.749  80.349  42.429  0.00  0.00    +0.150 HD
BRANCH  70  74
ATOM     74  CA  ASP A   5      12.928  80.653  44.993  0.00  0.00    +0.160 C 
BRANCH  74  77
ATOM     75  C   ILE A   4      14.031  82.447  46.229  0.00  0.00    +0.241 C 
ATOM     76  O   ILE A   4      14.124  81.765  47.257  0.00  0.00    -0.273 OA
ATOM     77  N   ASP A   5      13.476  82.001  45.107  0.00  0.00    -0.297 N 
ATOM     78  H   ASP A   5      13.431  82.633  44.283  0.00  0.00    +0.150 HD
BRANCH  75  79
ATOM     79  CA  ILE A   4      14.545  83.883  46.200  0.00  0.00    +0.149 C 
BRANCH  79  81
ATOM     80  C   ILE A   3      12.741  85.404  46.854  0.00  0.00    +0.241 C 
ATOM     81  N   ILE A   4      13.719  84.566  47.194  0.00  0.00    -0.297 N 
ATOM     82  H   ILE A   4      13.901  84.391  48.203  0.00  0.00    +0.150 HD
ATOM     83  O   ILE A   3      12.487  85.709  45.688  0.00  0.00    -0.273 OA
BRANCH  80  84
ATOM     84  CA  ILE A   3      11.938  85.988  48.009  0.00  0.00    +0.149 C 
BRANCH  84  87
ATOM     85  C   ASP A   2      11.133  88.107  48.812  0.00  0.00    +0.241 C 
ATOM     86  O   ASP A   2      11.262  87.732  49.984  0.00  0.00    -0.273 OA
ATOM     87  N   ILE A   3      11.454  87.336  47.777  0.00  0.00    -0.297 N 
ATOM     88  H   ILE A   3      11.359  87.697  46.806  0.00  0.00    +0.150 HD
BRANCH  85  89
ATOM     89  CA  ASP A   2      10.608  89.503  48.505  0.00  0.00    +0.160 C 
BRANCH  89  92
ATOM     90  C   GLU A   1      12.536  90.861  47.925  0.00  0.00    +0.238 C 
ATOM     91  O   GLU A   1      12.952  90.835  49.084  0.00  0.00    -0.274 OA
ATOM     92  N   ASP A   2      11.419  90.245  47.547  0.00  0.00    -0.297 N 
ATOM     93  H   ASP A   2      11.119  90.293  46.552  0.00  0.00    +0.150 HD
BRANCH  90  94
ATOM     94  CA  GLU A   1      13.302  91.615  46.840  0.00  0.00    +0.145 C 
BRANCH  94  95
ATOM     95  N   GLU A   1      14.242  92.586  47.383  0.00  0.00    -0.238 NA
ATOM     96  H   GLU A   1      14.945  92.268  48.081  0.00  0.00    +0.142 HD
ENDBRANCH  94  95
BRANCH  94  97
ATOM     97  CB  GLU A   1      14.085  90.641  45.948  0.00  0.00    +0.038 C 
BRANCH  97  98
ATOM     98  CG  GLU A   1      13.343  89.399  45.525  0.00  0.00    +0.116 C 
BRANCH  98  99
ATOM     99  CD  GLU A   1      12.245  89.684  44.528  0.00  0.00    +0.365 C 
ATOM    100  OE2 GLU A   1      11.356  90.498  44.853  0.00  0.00    -0.246 OA
ATOM    101  OE1 GLU A   1      12.264  89.091  43.425  0.00  0.00    -0.246 OA
ENDBRANCH  98  99
ENDBRANCH  97  98
ENDBRANCH  94  97
ENDBRANCH  90  94
ENDBRANCH  89  92
BRANCH  89 102
ATOM    102  CB  ASP A   2       9.143  89.416  48.036  0.00  0.00    +0.143 C 
BRANCH 102 103
ATOM    103  CG  ASP A   2       8.995  88.851  46.618  0.00  0.00    +0.367 C 
ATOM    104  OD2 ASP A   2       7.849  88.786  46.128  0.00  0.00    -0.246 OA
ATOM    105  OD1 ASP A   2      10.007  88.476  45.990  0.00  0.00    -0.246 OA
ENDBRANCH 102 103
ENDBRANCH  89 102
ENDBRANCH  85  89
ENDBRANCH  84  87
BRANCH  84 106
ATOM    106  CB  ILE A   3      10.756  85.043  48.307  0.00  0.00    +0.027 C 
ATOM    107  CG2 ILE A   3       9.769  85.067  47.147  0.00  0.00    +0.002 C 
BRANCH 106 108
ATOM    108  CG1 ILE A   3      11.257  83.618  48.526  0.00  0.00    +0.002 C 
ATOM    109  CD1 ILE A   3      10.196  82.682  49.085  0.00  0.00    +0.000 C 
ENDBRANCH 106 108
ENDBRANCH  84 106
ENDBRANCH  80  84
ENDBRANCH  79  81
BRANCH  79 110
ATOM    110  CB  ILE A   4      16.048  83.872  46.587  0.00  0.00    +0.027 C 
ATOM    111  CG2 ILE A   4      16.841  83.081  45.553  0.00  0.00    +0.002 C 
BRANCH 110 112
ATOM    112  CG1 ILE A   4      16.583  85.302  46.728  0.00  0.00    +0.002 C 
ATOM    113  CD1 ILE A   4      16.535  86.116  45.464  0.00  0.00    +0.000 C 
ENDBRANCH 110 112
ENDBRANCH  79 110
ENDBRANCH  75  79
ENDBRANCH  74  77
BRANCH  74 114
ATOM    114  CB  ASP A   5      11.513  80.719  44.409  0.00  0.00    +0.143 C 
BRANCH 114 115
ATOM    115  CG  ASP A   5      10.697  79.471  44.692  0.00  0.00    +0.367 C 
ATOM    116  OD2 ASP A   5       9.493  79.608  45.016  0.00  0.00    -0.246 OA
ATOM    117  OD1 ASP A   5      11.263  78.358  44.581  0.00  0.00    -0.246 OA
ENDBRANCH 114 115
ENDBRANCH  74 114
ENDBRANCH  70  74
ENDBRANCH  69  72
BRANCH  69 118
ATOM    118  CB  THR A   6      13.719  78.811  40.513  0.00  0.00    +0.137 C 
ATOM    119  CG2 THR A   6      12.380  78.135  40.724  0.00  0.00    +0.034 C 
BRANCH 118 120
ATOM    120  OG1 THR A   6      13.532  80.053  39.814  0.00  0.00    -0.382 OA
ATOM    121  HG1 THR A   6      12.973  80.658  40.363  0.00  0.00    +0.210 HD
ENDBRANCH 118 120
ENDBRANCH  69 118
ENDBRANCH  65  69
ENDBRANCH  64  66
ENDBRANCH   1  64
TORSDOF 56
REMARK  Name = ../refined-set-2016/1bzy/1bzy_pocket.pdb
REMARK  250 active torsions:
REMARK  status: ('A' for Active; 'I' for Inactive)
REMARK    1  A    between atoms: _1  and  _3
REMARK    2  A    between atoms: _3  and  _4
REMARK    3  A    between atoms: _3  and  _6
REMARK    4  A    between atoms: _9  and  _11
REMARK    5  A    between atoms: _11  and  _12
REMARK    6  A    between atoms: _11  and  _14
REMARK    7  A    between atoms: _14  and  _15
REMARK    8  A    between atoms: _18  and  _20
REMARK    9  A    between atoms: _20  and  _21
REMARK   10  A    between atoms: _20  and  _23
REMARK   11  A    between atoms: _23  and  _24
REMARK   12  A    between atoms: _24  and  _25
REMARK   13  A    between atoms: _25  and  _26
REMARK   14  A    between atoms: _26  and  _27
REMARK   15  A    between atoms: _31  and  _33
REMARK   16  A    between atoms: _33  and  _34
REMARK   17  A    between atoms: _36  and  _38
REMARK   18  A    between atoms: _38  and  _39
REMARK   19  A    between atoms: _41  and  _43
REMARK   20  A    between atoms: _43  and  _44
REMARK   21  A    between atoms: _43  and  _46
REMARK   22  A    between atoms: _46  and  _47
REMARK   23  A    between atoms: _52  and  _53
REMARK   24  A    between atoms: _55  and  _57
REMARK   25  A    between atoms: _57  and  _58
REMARK   26  A    between atoms: _57  and  _60
REMARK   27  A    between atoms: _60  and  _61
REMARK   28  A    between atoms: _64  and  _66
REMARK   29  A    between atoms: _66  and  _67
REMARK   30  A    between atoms: _66  and  _69
REMARK   31  A    between atoms: _69  and  _70
REMARK   32  A    between atoms: _70  and  _71
REMARK   33  A    between atoms: _71  and  _72
REMARK   34  A    between atoms: _72  and  _73
REMARK   35  A    between atoms: _77  and  _79
REMARK   36  A    between atoms: _79  and  _80
REMARK   37  A    between atoms: _79  and  _82
REMARK   38  A    between atoms: _82  and  _83
REMARK   39  A    between atoms: _85  and  _87
REMARK   40  A    between atoms: _87  and  _88
REMARK   41  A    between atoms: _87  and  _90
REMARK   42  A    between atoms: _90  and  _91
REMARK   43  A    between atoms: _96  and  _97
REMARK   44  A    between atoms: _99  and  _101
REMARK   45  A    between atoms: _101  and  _102
REMARK   46  A    between atoms: _101  and  _104
REMARK   47  A    between atoms: _106  and  _108
REMARK   48  A    between atoms: _108  and  _109
REMARK   49  A    between atoms: _108  and  _111
REMARK   50  A    between atoms: _111  and  _112
REMARK   51  A    between atoms: _117  and  _119
REMARK   52  A    between atoms: _119  and  _120
REMARK   53  A    between atoms: _119  and  _122
REMARK   54  A    between atoms: _122  and  _123
REMARK   55  A    between atoms: _126  and  _128
REMARK   56  A    between atoms: _128  and  _129
REMARK   57  A    between atoms: _128  and  _131
REMARK   58  A    between atoms: _131  and  _132
REMARK   59  A    between atoms: _132  and  _133
REMARK   60  A    between atoms: _138  and  _140
REMARK   61  A    between atoms: _140  and  _141
REMARK   62  A    between atoms: _140  and  _143
REMARK   63  A    between atoms: _143  and  _144
REMARK   64  A    between atoms: _146  and  _148
REMARK   65  A    between atoms: _148  and  _149
REMARK   66  A    between atoms: _148  and  _151
REMARK   67  A    between atoms: _151  and  _152
REMARK   68  A    between atoms: _155  and  _157
REMARK   69  A    between atoms: _157  and  _158
REMARK   70  A    between atoms: _160  and  _162
REMARK   71  A    between atoms: _162  and  _163
REMARK   72  A    between atoms: _162  and  _165
REMARK   73  A    between atoms: _165  and  _166
REMARK   74  A    between atoms: _169  and  _171
REMARK   75  A    between atoms: _171  and  _172
REMARK   76  A    between atoms: _171  and  _174
REMARK   77  A    between atoms: _174  and  _175
REMARK   78  A    between atoms: _175  and  _176
REMARK   79  A    between atoms: _179  and  _181
REMARK   80  A    between atoms: _181  and  _182
REMARK   81  A    between atoms: _181  and  _184
REMARK   82  A    between atoms: _184  and  _185
REMARK   83  A    between atoms: _188  and  _190
REMARK   84  A    between atoms: _190  and  _191
REMARK   85  A    between atoms: _190  and  _193
REMARK   86  A    between atoms: _193  and  _194
REMARK   87  A    between atoms: _197  and  _199
REMARK   88  A    between atoms: _199  and  _200
REMARK   89  A    between atoms: _199  and  _202
REMARK   90  A    between atoms: _202  and  _203
REMARK   91  A    between atoms: _206  and  _208
REMARK   92  A    between atoms: _208  and  _209
REMARK   93  A    between atoms: _208  and  _211
REMARK   94  A    between atoms: _211  and  _212
REMARK   95  A    between atoms: _215  and  _217
REMARK   96  A    between atoms: _217  and  _218
REMARK   97  A    between atoms: _217  and  _220
REMARK   98  A    between atoms: _220  and  _221
REMARK   99  A    between atoms: _224  and  _226
REMARK  100  A    between atoms: _226  and  _227
REMARK  101  A    between atoms: _229  and  _231
REMARK  102  A    between atoms: _231  and  _232
REMARK  103  A    between atoms: _231  and  _234
REMARK  104  A    between atoms: _234  and  _235
REMARK  105  A    between atoms: _235  and  _236
REMARK  106  A    between atoms: _236  and  _237
REMARK  107  A    between atoms: _237  and  _238
REMARK  108  A    between atoms: _242  and  _244
REMARK  109  A    between atoms: _244  and  _245
REMARK  110  A    between atoms: _244  and  _247
REMARK  111  A    between atoms: _247  and  _248
REMARK  112  A    between atoms: _251  and  _253
REMARK  113  A    between atoms: _253  and  _254
REMARK  114  A    between atoms: _253  and  _256
REMARK  115  A    between atoms: _256  and  _257
REMARK  116  A    between atoms: _257  and  _258
REMARK  117  A    between atoms: _260  and  _262
REMARK  118  A    between atoms: _262  and  _263
REMARK  119  A    between atoms: _262  and  _265
REMARK  120  A    between atoms: _265  and  _266
REMARK  121  A    between atoms: _266  and  _267
REMARK  122  A    between atoms: _272  and  _274
REMARK  123  A    between atoms: _274  and  _275
REMARK  124  A    between atoms: _274  and  _277
REMARK  125  A    between atoms: _277  and  _278
REMARK  126  A    between atoms: _281  and  _283
REMARK  127  A    between atoms: _283  and  _284
REMARK  128  A    between atoms: _283  and  _286
REMARK  129  A    between atoms: _286  and  _287
REMARK  130  A    between atoms: _290  and  _292
REMARK  131  A    between atoms: _292  and  _293
REMARK  132  A    between atoms: _292  and  _295
REMARK  133  A    between atoms: _295  and  _296
REMARK  134  A    between atoms: _298  and  _300
REMARK  135  A    between atoms: _300  and  _301
REMARK  136  A    between atoms: _300  and  _303
REMARK  137  A    between atoms: _303  and  _304
REMARK  138  A    between atoms: _307  and  _309
REMARK  139  A    between atoms: _309  and  _310
REMARK  140  A    between atoms: _309  and  _312
REMARK  141  A    between atoms: _312  and  _313
REMARK  142  A    between atoms: _313  and  _314
REMARK  143  A    between atoms: _314  and  _315
REMARK  144  A    between atoms: _315  and  _316
REMARK  145  A    between atoms: _320  and  _322
REMARK  146  A    between atoms: _322  and  _323
REMARK  147  A    between atoms: _322  and  _325
REMARK  148  A    between atoms: _325  and  _326
REMARK  149  A    between atoms: _329  and  _331
REMARK  150  A    between atoms: _331  and  _332
REMARK  151  A    between atoms: _331  and  _334
REMARK  152  A    between atoms: _334  and  _335
REMARK  153  A    between atoms: _335  and  _336
REMARK  154  A    between atoms: _336  and  _337
REMARK  155  A    between atoms: _346  and  _348
REMARK  156  A    between atoms: _348  and  _349
REMARK  157  A    between atoms: _348  and  _351
REMARK  158  A    between atoms: _351  and  _352
REMARK  159  A    between atoms: _354  and  _356
REMARK  160  A    between atoms: _356  and  _357
REMARK  161  A    between atoms: _356  and  _359
REMARK  162  A    between atoms: _362  and  _364
REMARK  163  A    between atoms: _364  and  _365
REMARK  164  A    between atoms: _364  and  _367
REMARK  165  A    between atoms: _367  and  _368
REMARK  166  A    between atoms: _373  and  _374
REMARK  167  A    between atoms: _376  and  _378
REMARK  168  A    between atoms: _378  and  _379
REMARK  169  A    between atoms: _378  and  _381
REMARK  170  A    between atoms: _381  and  _382
REMARK  171  A    between atoms: _386  and  _387
REMARK  172  A    between atoms: _392  and  _394
REMARK  173  A    between atoms: _394  and  _395
REMARK  174  A    between atoms: _394  and  _397
REMARK  175  A    between atoms: _397  and  _398
REMARK  176  A    between atoms: _401  and  _403
REMARK  177  A    between atoms: _403  and  _404
REMARK  178  A    between atoms: _403  and  _406
REMARK  179  A    between atoms: _406  and  _407
REMARK  180  A    between atoms: _407  and  _408
REMARK  181  A    between atoms: _408  and  _409
REMARK  182  A    between atoms: _409  and  _410
REMARK  183  A    between atoms: _414  and  _416
REMARK  184  A    between atoms: _416  and  _417
REMARK  185  A    between atoms: _416  and  _419
REMARK  186  A    between atoms: _419  and  _420
REMARK  187  A    between atoms: _426  and  _428
REMARK  188  A    between atoms: _428  and  _429
REMARK  189  A    between atoms: _428  and  _431
REMARK  190  A    between atoms: _434  and  _436
REMARK  191  A    between atoms: _436  and  _437
REMARK  192  A    between atoms: _436  and  _439
REMARK  193  A    between atoms: _442  and  _444
REMARK  194  A    between atoms: _444  and  _445
REMARK  195  A    between atoms: _447  and  _449
REMARK  196  A    between atoms: _449  and  _450
REMARK  197  A    between atoms: _449  and  _452
REMARK  198  A    between atoms: _452  and  _453
REMARK  199  A    between atoms: _458  and  _459
REMARK  200  A    between atoms: _461  and  _463
REMARK  201  A    between atoms: _463  and  _464
REMARK  202  A    between atoms: _467  and  _469
REMARK  203  A    between atoms: _469  and  _470
REMARK  204  A    between atoms: _469  and  _472
REMARK  205  A    between atoms: _472  and  _473
REMARK  206  A    between atoms: _476  and  _478
REMARK  207  A    between atoms: _478  and  _479
REMARK  208  A    between atoms: _478  and  _481
REMARK  209  A    between atoms: _481  and  _482
REMARK  210  A    between atoms: _482  and  _483
REMARK  211  A    between atoms: _483  and  MG_588
REMARK  212  A    between atoms: _485  and  _487
REMARK  213  A    between atoms: _487  and  _488
REMARK  214  A    between atoms: _487  and  _490
REMARK  215  A    between atoms: _490  and  _491
REMARK  216  A    between atoms: _496  and  _497
REMARK  217  A    between atoms: _499  and  _501
REMARK  218  A    between atoms: _501  and  _502
REMARK  219  A    between atoms: _501  and  _504
REMARK  220  A    between atoms: _504  and  _505
REMARK  221  A    between atoms: _510  and  _512
REMARK  222  A    between atoms: _512  and  _513
REMARK  223  A    between atoms: _512  and  _515
REMARK  224  A    between atoms: _515  and  _516
REMARK  225  A    between atoms: _516  and  _517
REMARK  226  A    between atoms: _520  and  _522
REMARK  227  A    between atoms: _522  and  _523
REMARK  228  A    between atoms: _522  and  _525
REMARK  229  A    between atoms: _525  and  _526
REMARK  230  A    between atoms: _531  and  _532
REMARK  231  A    between atoms: _534  and  _536
REMARK  232  A    between atoms: _536  and  _537
REMARK  233  A    between atoms: _536  and  _539
REMARK  234  A    between atoms: _539  and  _540
REMARK  235  A    between atoms: _546  and  _548
REMARK  236  A    between atoms: _548  and  _549
REMARK  237  A    between atoms: _548  and  _551
REMARK  238  A    between atoms: _551  and  _552
REMARK  239  A    between atoms: _552  and  _553
REMARK  240  A    between atoms: _553  and  _554
REMARK  241  A    between atoms: _563  and  _565
REMARK  242  A    between atoms: _565  and  _566
REMARK  243  A    between atoms: _565  and  _568
REMARK  244  A    between atoms: _571  and  _573
REMARK  245  A    between atoms: _573  and  _574
REMARK  246  A    between atoms: _573  and  _576
REMARK  247  A    between atoms: _578  and  _580
REMARK  248  A    between atoms: _580  and  _581
REMARK  249  A    between atoms: _580  and  _583
REMARK  250  A    between atoms: _583  and  _584
REMARK                            x       y       z     vdW  Elec       q    Type
REMARK                         _______ _______ _______ _____ _____    ______ ____
ROOT
ATOM      1  CA  SER A   1      15.819  89.370  50.161  0.00  0.00    +0.163 C 
ENDROOT
BRANCH   1   2
ATOM      2  N   SER A   1      17.032  90.122  50.439  0.00  0.00    -0.237 NA
ATOM      3  H   SER A   1      17.781  89.693  51.019  0.00  0.00    +0.142 HD
ENDBRANCH   1   2
BRANCH   1   4
ATOM      4  CB  SER A   1      15.186  89.033  51.500  0.00  0.00    +0.227 C 
ATOM      5  OG  SER A   1      15.867  88.546  52.396  0.00  0.00    -0.287 OA
ENDBRANCH   1   4
BRANCH   1   6
ATOM      6  C   SER A   1      16.160  88.081  49.400  0.00  0.00    +0.162 C 
BRANCH   6   7
ATOM      7  O   SER A   1      14.988  87.472  48.889  0.00  0.00    -0.380 OA
ATOM      8  H   SER A   1      14.380  87.249  49.638  0.00  0.00    +0.211 HD
ENDBRANCH   6   7
ENDBRANCH   1   6
TORSDOF 4
REMARK  Name = ../refined-set-2016/1bzy/1bzy_pocket.pdb
REMARK  250 active torsions:
REMARK  status: ('A' for Active; 'I' for Inactive)
REMARK    1  A    between atoms: _1  and  _3
REMARK    2  A    between atoms: _3  and  _4
REMARK    3  A    between atoms: _3  and  _6
REMARK    4  A    between atoms: _9  and  _11
REMARK    5  A    between atoms: _11  and  _12
REMARK    6  A    between atoms: _11  and  _14
REMARK    7  A    between atoms: _14  and  _15
REMARK    8  A    between atoms: _18  and  _20
REMARK    9  A    between atoms: _20  and  _21
REMARK   10  A    between atoms: _20  and  _23
REMARK   11  A    between atoms: _23  and  _24
REMARK   12  A    between atoms: _24  and  _25
REMARK   13  A    between atoms: _25  and  _26
REMARK   14  A    between atoms: _26  and  _27
REMARK   15  A    between atoms: _31  and  _33
REMARK   16  A    between atoms: _33  and  _34
REMARK   17  A    between atoms: _36  and  _38
REMARK   18  A    between atoms: _38  and  _39
REMARK   19  A    between atoms: _41  and  _43
REMARK   20  A    between atoms: _43  and  _44
REMARK   21  A    between atoms: _43  and  _46
REMARK   22  A    between atoms: _46  and  _47
REMARK   23  A    between atoms: _52  and  _53
REMARK   24  A    between atoms: _55  and  _57
REMARK   25  A    between atoms: _57  and  _58
REMARK   26  A    between atoms: _57  and  _60
REMARK   27  A    between atoms: _60  and  _61
REMARK   28  A    between atoms: _64  and  _66
REMARK   29  A    between atoms: _66  and  _67
REMARK   30  A    between atoms: _66  and  _69
REMARK   31  A    between atoms: _69  and  _70
REMARK   32  A    between atoms: _70  and  _71
REMARK   33  A    between atoms: _71  and  _72
REMARK   34  A    between atoms: _72  and  _73
REMARK   35  A    between atoms: _77  and  _79
REMARK   36  A    between atoms: _79  and  _80
REMARK   37  A    between atoms: _79  and  _82
REMARK   38  A    between atoms: _82  and  _83
REMARK   39  A    between atoms: _85  and  _87
REMARK   40  A    between atoms: _87  and  _88
REMARK   41  A    between atoms: _87  and  _90
REMARK   42  A    between atoms: _90  and  _91
REMARK   43  A    between atoms: _96  and  _97
REMARK   44  A    between atoms: _99  and  _101
REMARK   45  A    between atoms: _101  and  _102
REMARK   46  A    between atoms: _101  and  _104
REMARK   47  A    between atoms: _106  and  _108
REMARK   48  A    between atoms: _108  and  _109
REMARK   49  A    between atoms: _108  and  _111
REMARK   50  A    between atoms: _111  and  _112
REMARK   51  A    between atoms: _117  and  _119
REMARK   52  A    between atoms: _119  and  _120
REMARK   53  A    between atoms: _119  and  _122
REMARK   54  A    between atoms: _122  and  _123
REMARK   55  A    between atoms: _126  and  _128
REMARK   56  A    between atoms: _128  and  _129
REMARK   57  A    between atoms: _128  and  _131
REMARK   58  A    between atoms: _131  and  _132
REMARK   59  A    between atoms: _132  and  _133
REMARK   60  A    between atoms: _138  and  _140
REMARK   61  A    between atoms: _140  and  _141
REMARK   62  A    between atoms: _140  and  _143
REMARK   63  A    between atoms: _143  and  _144
REMARK   64  A    between atoms: _146  and  _148
REMARK   65  A    between atoms: _148  and  _149
REMARK   66  A    between atoms: _148  and  _151
REMARK   67  A    between atoms: _151  and  _152
REMARK   68  A    between atoms: _155  and  _157
REMARK   69  A    between atoms: _157  and  _158
REMARK   70  A    between atoms: _160  and  _162
REMARK   71  A    between atoms: _162  and  _163
REMARK   72  A    between atoms: _162  and  _165
REMARK   73  A    between atoms: _165  and  _166
REMARK   74  A    between atoms: _169  and  _171
REMARK   75  A    between atoms: _171  and  _172
REMARK   76  A    between atoms: _171  and  _174
REMARK   77  A    between atoms: _174  and  _175
REMARK   78  A    between atoms: _175  and  _176
REMARK   79  A    between atoms: _179  and  _181
REMARK   80  A    between atoms: _181  and  _182
REMARK   81  A    between atoms: _181  and  _184
REMARK   82  A    between atoms: _184  and  _185
REMARK   83  A    between atoms: _188  and  _190
REMARK   84  A    between atoms: _190  and  _191
REMARK   85  A    between atoms: _190  and  _193
REMARK   86  A    between atoms: _193  and  _194
REMARK   87  A    between atoms: _197  and  _199
REMARK   88  A    between atoms: _199  and  _200
REMARK   89  A    between atoms: _199  and  _202
REMARK   90  A    between atoms: _202  and  _203
REMARK   91  A    between atoms: _206  and  _208
REMARK   92  A    between atoms: _208  and  _209
REMARK   93  A    between atoms: _208  and  _211
REMARK   94  A    between atoms: _211  and  _212
REMARK   95  A    between atoms: _215  and  _217
REMARK   96  A    between atoms: _217  and  _218
REMARK   97  A    between atoms: _217  and  _220
REMARK   98  A    between atoms: _220  and  _221
REMARK   99  A    between atoms: _224  and  _226
REMARK  100  A    between atoms: _226  and  _227
REMARK  101  A    between atoms: _229  and  _231
REMARK  102  A    between atoms: _231  and  _232
REMARK  103  A    between atoms: _231  and  _234
REMARK  104  A    between atoms: _234  and  _235
REMARK  105  A    between atoms: _235  and  _236
REMARK  106  A    between atoms: _236  and  _237
REMARK  107  A    between atoms: _237  and  _238
REMARK  108  A    between atoms: _242  and  _244
REMARK  109  A    between atoms: _244  and  _245
REMARK  110  A    between atoms: _244  and  _247
REMARK  111  A    between atoms: _247  and  _248
REMARK  112  A    between atoms: _251  and  _253
REMARK  113  A    between atoms: _253  and  _254
REMARK  114  A    between atoms: _253  and  _256
REMARK  115  A    between atoms: _256  and  _257
REMARK  116  A    between atoms: _257  and  _258
REMARK  117  A    between atoms: _260  and  _262
REMARK  118  A    between atoms: _262  and  _263
REMARK  119  A    between atoms: _262  and  _265
REMARK  120  A    between atoms: _265  and  _266
REMARK  121  A    between atoms: _266  and  _267
REMARK  122  A    between atoms: _272  and  _274
REMARK  123  A    between atoms: _274  and  _275
REMARK  124  A    between atoms: _274  and  _277
REMARK  125  A    between atoms: _277  and  _278
REMARK  126  A    between atoms: _281  and  _283
REMARK  127  A    between atoms: _283  and  _284
REMARK  128  A    between atoms: _283  and  _286
REMARK  129  A    between atoms: _286  and  _287
REMARK  130  A    between atoms: _290  and  _292
REMARK  131  A    between atoms: _292  and  _293
REMARK  132  A    between atoms: _292  and  _295
REMARK  133  A    between atoms: _295  and  _296
REMARK  134  A    between atoms: _298  and  _300
REMARK  135  A    between atoms: _300  and  _301
REMARK  136  A    between atoms: _300  and  _303
REMARK  137  A    between atoms: _303  and  _304
REMARK  138  A    between atoms: _307  and  _309
REMARK  139  A    between atoms: _309  and  _310
REMARK  140  A    between atoms: _309  and  _312
REMARK  141  A    between atoms: _312  and  _313
REMARK  142  A    between atoms: _313  and  _314
REMARK  143  A    between atoms: _314  and  _315
REMARK  144  A    between atoms: _315  and  _316
REMARK  145  A    between atoms: _320  and  _322
REMARK  146  A    between atoms: _322  and  _323
REMARK  147  A    between atoms: _322  and  _325
REMARK  148  A    between atoms: _325  and  _326
REMARK  149  A    between atoms: _329  and  _331
REMARK  150  A    between atoms: _331  and  _332
REMARK  151  A    between atoms: _331  and  _334
REMARK  152  A    between atoms: _334  and  _335
REMARK  153  A    between atoms: _335  and  _336
REMARK  154  A    between atoms: _336  and  _337
REMARK  155  A    between atoms: _346  and  _348
REMARK  156  A    between atoms: _348  and  _349
REMARK  157  A    between atoms: _348  and  _351
REMARK  158  A    between atoms: _351  and  _352
REMARK  159  A    between atoms: _354  and  _356
REMARK  160  A    between atoms: _356  and  _357
REMARK  161  A    between atoms: _356  and  _359
REMARK  162  A    between atoms: _362  and  _364
REMARK  163  A    between atoms: _364  and  _365
REMARK  164  A    between atoms: _364  and  _367
REMARK  165  A    between atoms: _367  and  _368
REMARK  166  A    between atoms: _373  and  _374
REMARK  167  A    between atoms: _376  and  _378
REMARK  168  A    between atoms: _378  and  _379
REMARK  169  A    between atoms: _378  and  _381
REMARK  170  A    between atoms: _381  and  _382
REMARK  171  A    between atoms: _386  and  _387
REMARK  172  A    between atoms: _392  and  _394
REMARK  173  A    between atoms: _394  and  _395
REMARK  174  A    between atoms: _394  and  _397
REMARK  175  A    between atoms: _397  and  _398
REMARK  176  A    between atoms: _401  and  _403
REMARK  177  A    between atoms: _403  and  _404
REMARK  178  A    between atoms: _403  and  _406
REMARK  179  A    between atoms: _406  and  _407
REMARK  180  A    between atoms: _407  and  _408
REMARK  181  A    between atoms: _408  and  _409
REMARK  182  A    between atoms: _409  and  _410
REMARK  183  A    between atoms: _414  and  _416
REMARK  184  A    between atoms: _416  and  _417
REMARK  185  A    between atoms: _416  and  _419
REMARK  186  A    between atoms: _419  and  _420
REMARK  187  A    between atoms: _426  and  _428
REMARK  188  A    between atoms: _428  and  _429
REMARK  189  A    between atoms: _428  and  _431
REMARK  190  A    between atoms: _434  and  _436
REMARK  191  A    between atoms: _436  and  _437
REMARK  192  A    between atoms: _436  and  _439
REMARK  193  A    between atoms: _442  and  _444
REMARK  194  A    between atoms: _444  and  _445
REMARK  195  A    between atoms: _447  and  _449
REMARK  196  A    between atoms: _449  and  _450
REMARK  197  A    between atoms: _449  and  _452
REMARK  198  A    between atoms: _452  and  _453
REMARK  199  A    between atoms: _458  and  _459
REMARK  200  A    between atoms: _461  and  _463
REMARK  201  A    between atoms: _463  and  _464
REMARK  202  A    between atoms: _467  and  _469
REMARK  203  A    between atoms: _469  and  _470
REMARK  204  A    between atoms: _469  and  _472
REMARK  205  A    between atoms: _472  and  _473
REMARK  206  A    between atoms: _476  and  _478
REMARK  207  A    between atoms: _478  and  _479
REMARK  208  A    between atoms: _478  and  _481
REMARK  209  A    between atoms: _481  and  _482
REMARK  210  A    between atoms: _482  and  _483
REMARK  211  A    between atoms: _483  and  MG_588
REMARK  212  A    between atoms: _485  and  _487
REMARK  213  A    between atoms: _487  and  _488
REMARK  214  A    between atoms: _487  and  _490
REMARK  215  A    between atoms: _490  and  _491
REMARK  216  A    between atoms: _496  and  _497
REMARK  217  A    between atoms: _499  and  _501
REMARK  218  A    between atoms: _501  and  _502
REMARK  219  A    between atoms: _501  and  _504
REMARK  220  A    between atoms: _504  and  _505
REMARK  221  A    between atoms: _510  and  _512
REMARK  222  A    between atoms: _512  and  _513
REMARK  223  A    between atoms: _512  and  _515
REMARK  224  A    between atoms: _515  and  _516
REMARK  225  A    between atoms: _516  and  _517
REMARK  226  A    between atoms: _520  and  _522
REMARK  227  A    between atoms: _522  and  _523
REMARK  228  A    between atoms: _522  and  _525
REMARK  229  A    between atoms: _525  and  _526
REMARK  230  A    between atoms: _531  and  _532
REMARK  231  A    between atoms: _534  and  _536
REMARK  232  A    between atoms: _536  and  _537
REMARK  233  A    between atoms: _536  and  _539
REMARK  234  A    between atoms: _539  and  _540
REMARK  235  A    between atoms: _546  and  _548
REMARK  236  A    between atoms: _548  and  _549
REMARK  237  A    between atoms: _548  and  _551
REMARK  238  A    between atoms: _551  and  _552
REMARK  239  A    between atoms: _552  and  _553
REMARK  240  A    between atoms: _553  and  _554
REMARK  241  A    between atoms: _563  and  _565
REMARK  242  A    between atoms: _565  and  _566
REMARK  243  A    between atoms: _565  and  _568
REMARK  244  A    between atoms: _571  and  _573
REMARK  245  A    between atoms: _573  and  _574
REMARK  246  A    between atoms: _573  and  _576
REMARK  247  A    between atoms: _578  and  _580
REMARK  248  A    between atoms: _580  and  _581
REMARK  249  A    between atoms: _580  and  _583
REMARK  250  A    between atoms: _583  and  _584
REMARK                            x       y       z     vdW  Elec       q    Type
REMARK                         _______ _______ _______ _____ _____    ______ ____
ROOT
ATOM      1  CA  LEU A   1      13.002  85.247  52.272  0.00  0.00    +0.133 C 
ENDROOT
BRANCH   1   2
ATOM      2  N   LEU A   1      12.998  86.700  52.149  0.00  0.00    -0.239 NA
ATOM      3  H   LEU A   1      12.747  87.131  51.236  0.00  0.00    +0.142 HD
ENDBRANCH   1   2
BRANCH   1   4
ATOM      4  C   LEU A   1      13.875  84.537  51.243  0.00  0.00    +0.224 C 
ATOM      5  O   LEU A   1      14.156  85.068  50.163  0.00  0.00    -0.287 OA
ENDBRANCH   1   4
BRANCH   1   6
ATOM      6  CB  LEU A   1      11.570  84.705  52.149  0.00  0.00    +0.025 C 
BRANCH   6   7
ATOM      7  CG  LEU A   1      10.455  85.507  52.832  0.00  0.00    +0.002 C 
ATOM      8  CD2 LEU A   1      10.568  85.313  54.336  0.00  0.00    +0.000 C 
ATOM      9  CD1 LEU A   1       9.080  85.059  52.344  0.00  0.00    +0.000 C 
ENDBRANCH   6   7
ENDBRANCH   1   6
TORSDOF 4
REMARK  Name = ../refined-set-2016/1bzy/1bzy_pocket.pdb
REMARK  250 active torsions:
REMARK  status: ('A' for Active; 'I' for Inactive)
REMARK    1  A    between atoms: _1  and  _3
REMARK    2  A    between atoms: _3  and  _4
REMARK    3  A    between atoms: _3  and  _6
REMARK    4  A    between atoms: _9  and  _11
REMARK    5  A    between atoms: _11  and  _12
REMARK    6  A    between atoms: _11  and  _14
REMARK    7  A    between atoms: _14  and  _15
REMARK    8  A    between atoms: _18  and  _20
REMARK    9  A    between atoms: _20  and  _21
REMARK   10  A    between atoms: _20  and  _23
REMARK   11  A    between atoms: _23  and  _24
REMARK   12  A    between atoms: _24  and  _25
REMARK   13  A    between atoms: _25  and  _26
REMARK   14  A    between atoms: _26  and  _27
REMARK   15  A    between atoms: _31  and  _33
REMARK   16  A    between atoms: _33  and  _34
REMARK   17  A    between atoms: _36  and  _38
REMARK   18  A    between atoms: _38  and  _39
REMARK   19  A    between atoms: _41  and  _43
REMARK   20  A    between atoms: _43  and  _44
REMARK   21  A    between atoms: _43  and  _46
REMARK   22  A    between atoms: _46  and  _47
REMARK   23  A    between atoms: _52  and  _53
REMARK   24  A    between atoms: _55  and  _57
REMARK   25  A    between atoms: _57  and  _58
REMARK   26  A    between atoms: _57  and  _60
REMARK   27  A    between atoms: _60  and  _61
REMARK   28  A    between atoms: _64  and  _66
REMARK   29  A    between atoms: _66  and  _67
REMARK   30  A    between atoms: _66  and  _69
REMARK   31  A    between atoms: _69  and  _70
REMARK   32  A    between atoms: _70  and  _71
REMARK   33  A    between atoms: _71  and  _72
REMARK   34  A    between atoms: _72  and  _73
REMARK   35  A    between atoms: _77  and  _79
REMARK   36  A    between atoms: _79  and  _80
REMARK   37  A    between atoms: _79  and  _82
REMARK   38  A    between atoms: _82  and  _83
REMARK   39  A    between atoms: _85  and  _87
REMARK   40  A    between atoms: _87  and  _88
REMARK   41  A    between atoms: _87  and  _90
REMARK   42  A    between atoms: _90  and  _91
REMARK   43  A    between atoms: _96  and  _97
REMARK   44  A    between atoms: _99  and  _101
REMARK   45  A    between atoms: _101  and  _102
REMARK   46  A    between atoms: _101  and  _104
REMARK   47  A    between atoms: _106  and  _108
REMARK   48  A    between atoms: _108  and  _109
REMARK   49  A    between atoms: _108  and  _111
REMARK   50  A    between atoms: _111  and  _112
REMARK   51  A    between atoms: _117  and  _119
REMARK   52  A    between atoms: _119  and  _120
REMARK   53  A    between atoms: _119  and  _122
REMARK   54  A    between atoms: _122  and  _123
REMARK   55  A    between atoms: _126  and  _128
REMARK   56  A    between atoms: _128  and  _129
REMARK   57  A    between atoms: _128  and  _131
REMARK   58  A    between atoms: _131  and  _132
REMARK   59  A    between atoms: _132  and  _133
REMARK   60  A    between atoms: _138  and  _140
REMARK   61  A    between atoms: _140  and  _141
REMARK   62  A    between atoms: _140  and  _143
REMARK   63  A    between atoms: _143  and  _144
REMARK   64  A    between atoms: _146  and  _148
REMARK   65  A    between atoms: _148  and  _149
REMARK   66  A    between atoms: _148  and  _151
REMARK   67  A    between atoms: _151  and  _152
REMARK   68  A    between atoms: _155  and  _157
REMARK   69  A    between atoms: _157  and  _158
REMARK   70  A    between atoms: _160  and  _162
REMARK   71  A    between atoms: _162  and  _163
REMARK   72  A    between atoms: _162  and  _165
REMARK   73  A    between atoms: _165  and  _166
REMARK   74  A    between atoms: _169  and  _171
REMARK   75  A    between atoms: _171  and  _172
REMARK   76  A    between atoms: _171  and  _174
REMARK   77  A    between atoms: _174  and  _175
REMARK   78  A    between atoms: _175  and  _176
REMARK   79  A    between atoms: _179  and  _181
REMARK   80  A    between atoms: _181  and  _182
REMARK   81  A    between atoms: _181  and  _184
REMARK   82  A    between atoms: _184  and  _185
REMARK   83  A    between atoms: _188  and  _190
REMARK   84  A    between atoms: _190  and  _191
REMARK   85  A    between atoms: _190  and  _193
REMARK   86  A    between atoms: _193  and  _194
REMARK   87  A    between atoms: _197  and  _199
REMARK   88  A    between atoms: _199  and  _200
REMARK   89  A    between atoms: _199  and  _202
REMARK   90  A    between atoms: _202  and  _203
REMARK   91  A    between atoms: _206  and  _208
REMARK   92  A    between atoms: _208  and  _209
REMARK   93  A    between atoms: _208  and  _211
REMARK   94  A    between atoms: _211  and  _212
REMARK   95  A    between atoms: _215  and  _217
REMARK   96  A    between atoms: _217  and  _218
REMARK   97  A    between atoms: _217  and  _220
REMARK   98  A    between atoms: _220  and  _221
REMARK   99  A    between atoms: _224  and  _226
REMARK  100  A    between atoms: _226  and  _227
REMARK  101  A    between atoms: _229  and  _231
REMARK  102  A    between atoms: _231  and  _232
REMARK  103  A    between atoms: _231  and  _234
REMARK  104  A    between atoms: _234  and  _235
REMARK  105  A    between atoms: _235  and  _236
REMARK  106  A    between atoms: _236  and  _237
REMARK  107  A    between atoms: _237  and  _238
REMARK  108  A    between atoms: _242  and  _244
REMARK  109  A    between atoms: _244  and  _245
REMARK  110  A    between atoms: _244  and  _247
REMARK  111  A    between atoms: _247  and  _248
REMARK  112  A    between atoms: _251  and  _253
REMARK  113  A    between atoms: _253  and  _254
REMARK  114  A    between atoms: _253  and  _256
REMARK  115  A    between atoms: _256  and  _257
REMARK  116  A    between atoms: _257  and  _258
REMARK  117  A    between atoms: _260  and  _262
REMARK  118  A    between atoms: _262  and  _263
REMARK  119  A    between atoms: _262  and  _265
REMARK  120  A    between atoms: _265  and  _266
REMARK  121  A    between atoms: _266  and  _267
REMARK  122  A    between atoms: _272  and  _274
REMARK  123  A    between atoms: _274  and  _275
REMARK  124  A    between atoms: _274  and  _277
REMARK  125  A    between atoms: _277  and  _278
REMARK  126  A    between atoms: _281  and  _283
REMARK  127  A    between atoms: _283  and  _284
REMARK  128  A    between atoms: _283  and  _286
REMARK  129  A    between atoms: _286  and  _287
REMARK  130  A    between atoms: _290  and  _292
REMARK  131  A    between atoms: _292  and  _293
REMARK  132  A    between atoms: _292  and  _295
REMARK  133  A    between atoms: _295  and  _296
REMARK  134  A    between atoms: _298  and  _300
REMARK  135  A    between atoms: _300  and  _301
REMARK  136  A    between atoms: _300  and  _303
REMARK  137  A    between atoms: _303  and  _304
REMARK  138  A    between atoms: _307  and  _309
REMARK  139  A    between atoms: _309  and  _310
REMARK  140  A    between atoms: _309  and  _312
REMARK  141  A    between atoms: _312  and  _313
REMARK  142  A    between atoms: _313  and  _314
REMARK  143  A    between atoms: _314  and  _315
REMARK  144  A    between atoms: _315  and  _316
REMARK  145  A    between atoms: _320  and  _322
REMARK  146  A    between atoms: _322  and  _323
REMARK  147  A    between atoms: _322  and  _325
REMARK  148  A    between atoms: _325  and  _326
REMARK  149  A    between atoms: _329  and  _331
REMARK  150  A    between atoms: _331  and  _332
REMARK  151  A    between atoms: _331  and  _334
REMARK  152  A    between atoms: _334  and  _335
REMARK  153  A    between atoms: _335  and  _336
REMARK  154  A    between atoms: _336  and  _337
REMARK  155  A    between atoms: _346  and  _348
REMARK  156  A    between atoms: _348  and  _349
REMARK  157  A    between atoms: _348  and  _351
REMARK  158  A    between atoms: _351  and  _352
REMARK  159  A    between atoms: _354  and  _356
REMARK  160  A    between atoms: _356  and  _357
REMARK  161  A    between atoms: _356  and  _359
REMARK  162  A    between atoms: _362  and  _364
REMARK  163  A    between atoms: _364  and  _365
REMARK  164  A    between atoms: _364  and  _367
REMARK  165  A    between atoms: _367  and  _368
REMARK  166  A    between atoms: _373  and  _374
REMARK  167  A    between atoms: _376  and  _378
REMARK  168  A    between atoms: _378  and  _379
REMARK  169  A    between atoms: _378  and  _381
REMARK  170  A    between atoms: _381  and  _382
REMARK  171  A    between atoms: _386  and  _387
REMARK  172  A    between atoms: _392  and  _394
REMARK  173  A    between atoms: _394  and  _395
REMARK  174  A    between atoms: _394  and  _397
REMARK  175  A    between atoms: _397  and  _398
REMARK  176  A    between atoms: _401  and  _403
REMARK  177  A    between atoms: _403  and  _404
REMARK  178  A    between atoms: _403  and  _406
REMARK  179  A    between atoms: _406  and  _407
REMARK  180  A    between atoms: _407  and  _408
REMARK  181  A    between atoms: _408  and  _409
REMARK  182  A    between atoms: _409  and  _410
REMARK  183  A    between atoms: _414  and  _416
REMARK  184  A    between atoms: _416  and  _417
REMARK  185  A    between atoms: _416  and  _419
REMARK  186  A    between atoms: _419  and  _420
REMARK  187  A    between atoms: _426  and  _428
REMARK  188  A    between atoms: _428  and  _429
REMARK  189  A    between atoms: _428  and  _431
REMARK  190  A    between atoms: _434  and  _436
REMARK  191  A    between atoms: _436  and  _437
REMARK  192  A    between atoms: _436  and  _439
REMARK  193  A    between atoms: _442  and  _444
REMARK  194  A    between atoms: _444  and  _445
REMARK  195  A    between atoms: _447  and  _449
REMARK  196  A    between atoms: _449  and  _450
REMARK  197  A    between atoms: _449  and  _452
REMARK  198  A    between atoms: _452  and  _453
REMARK  199  A    between atoms: _458  and  _459
REMARK  200  A    between atoms: _461  and  _463
REMARK  201  A    between atoms: _463  and  _464
REMARK  202  A    between atoms: _467  and  _469
REMARK  203  A    between atoms: _469  and  _470
REMARK  204  A    between atoms: _469  and  _472
REMARK  205  A    between atoms: _472  and  _473
REMARK  206  A    between atoms: _476  and  _478
REMARK  207  A    between atoms: _478  and  _479
REMARK  208  A    between atoms: _478  and  _481
REMARK  209  A    between atoms: _481  and  _482
REMARK  210  A    between atoms: _482  and  _483
REMARK  211  A    between atoms: _483  and  MG_588
REMARK  212  A    between atoms: _485  and  _487
REMARK  213  A    between atoms: _487  and  _488
REMARK  214  A    between atoms: _487  and  _490
REMARK  215  A    between atoms: _490  and  _491
REMARK  216  A    between atoms: _496  and  _497
REMARK  217  A    between atoms: _499  and  _501
REMARK  218  A    between atoms: _501  and  _502
REMARK  219  A    between atoms: _501  and  _504
REMARK  220  A    between atoms: _504  and  _505
REMARK  221  A    between atoms: _510  and  _512
REMARK  222  A    between atoms: _512  and  _513
REMARK  223  A    between atoms: _512  and  _515
REMARK  224  A    between atoms: _515  and  _516
REMARK  225  A    between atoms: _516  and  _517
REMARK  226  A    between atoms: _520  and  _522
REMARK  227  A    between atoms: _522  and  _523
REMARK  228  A    between atoms: _522  and  _525
REMARK  229  A    between atoms: _525  and  _526
REMARK  230  A    between atoms: _531  and  _532
REMARK  231  A    between atoms: _534  and  _536
REMARK  232  A    between atoms: _536  and  _537
REMARK  233  A    between atoms: _536  and  _539
REMARK  234  A    between atoms: _539  and  _540
REMARK  235  A    between atoms: _546  and  _548
REMARK  236  A    between atoms: _548  and  _549
REMARK  237  A    between atoms: _548  and  _551
REMARK  238  A    between atoms: _551  and  _552
REMARK  239  A    between atoms: _552  and  _553
REMARK  240  A    between atoms: _553  and  _554
REMARK  241  A    between atoms: _563  and  _565
REMARK  242  A    between atoms: _565  and  _566
REMARK  243  A    between atoms: _565  and  _568
REMARK  244  A    between atoms: _571  and  _573
REMARK  245  A    between atoms: _573  and  _574
REMARK  246  A    between atoms: _573  and  _576
REMARK  247  A    between atoms: _578  and  _580
REMARK  248  A    between atoms: _580  and  _581
REMARK  249  A    between atoms: _580  and  _583
REMARK  250  A    between atoms: _583  and  _584
REMARK                            x       y       z     vdW  Elec       q    Type
REMARK                         _______ _______ _______ _____ _____    ______ ____
ROOT
ATOM      1  CG  LYS A   1      11.217  77.991  49.201  0.00  0.00    -0.000 C 
ENDROOT
BRANCH   1   2
ATOM      2  CB  LYS A   1      12.225  79.073  48.917  0.00  0.00    +0.025 C 
BRANCH   2   3
ATOM      3  CA  LYS A   1      13.345  79.173  49.959  0.00  0.00    +0.133 C 
BRANCH   3   4
ATOM      4  N   LYS A   1      13.989  80.479  49.872  0.00  0.00    -0.239 NA
ATOM      5  H   LYS A   1      14.063  80.949  48.947  0.00  0.00    +0.142 HD
ENDBRANCH   3   4
BRANCH   3   6
ATOM      6  C   LYS A   1      14.284  77.987  49.775  0.00  0.00    +0.224 C 
ATOM      7  O   LYS A   1      15.088  77.958  48.843  0.00  0.00    -0.287 OA
ENDBRANCH   3   6
ENDBRANCH   2   3
ENDBRANCH   1   2
BRANCH   1   8
ATOM      8  CD  LYS A   1      10.219  77.859  48.065  0.00  0.00    -0.024 C 
BRANCH   8   9
ATOM      9  CE  LYS A   1       9.267  79.052  48.001  0.00  0.00    -0.086 C 
BRANCH   9  10
ATOM     10  NZ  LYS A   1       8.002  78.726  47.280  0.00  0.00    +0.380 N 
ATOM     11  HZ1 LYS A   1       7.515  77.949  47.771  0.00  0.00    -0.089 HD
ATOM     12  HZ2 LYS A   1       7.388  79.565  47.262  0.00  0.00    -0.089 HD
ATOM     13  HZ3 LYS A   1       8.224  78.437  46.306  0.00  0.00    -0.089 HD
ENDBRANCH   9  10
ENDBRANCH   8   9
ENDBRANCH   1   8
TORSDOF 7
REMARK  Name = ../refined-set-2016/1bzy/1bzy_pocket.pdb
REMARK  250 active torsions:
REMARK  status: ('A' for Active; 'I' for Inactive)
REMARK    1  A    between atoms: _1  and  _3
REMARK    2  A    between atoms: _3  and  _4
REMARK    3  A    between atoms: _3  and  _6
REMARK    4  A    between atoms: _9  and  _11
REMARK    5  A    between atoms: _11  and  _12
REMARK    6  A    between atoms: _11  and  _14
REMARK    7  A    between atoms: _14  and  _15
REMARK    8  A    between atoms: _18  and  _20
REMARK    9  A    between atoms: _20  and  _21
REMARK   10  A    between atoms: _20  and  _23
REMARK   11  A    between atoms: _23  and  _24
REMARK   12  A    between atoms: _24  and  _25
REMARK   13  A    between atoms: _25  and  _26
REMARK   14  A    between atoms: _26  and  _27
REMARK   15  A    between atoms: _31  and  _33
REMARK   16  A    between atoms: _33  and  _34
REMARK   17  A    between atoms: _36  and  _38
REMARK   18  A    between atoms: _38  and  _39
REMARK   19  A    between atoms: _41  and  _43
REMARK   20  A    between atoms: _43  and  _44
REMARK   21  A    between atoms: _43  and  _46
REMARK   22  A    between atoms: _46  and  _47
REMARK   23  A    between atoms: _52  and  _53
REMARK   24  A    between atoms: _55  and  _57
REMARK   25  A    between atoms: _57  and  _58
REMARK   26  A    between atoms: _57  and  _60
REMARK   27  A    between atoms: _60  and  _61
REMARK   28  A    between atoms: _64  and  _66
REMARK   29  A    between atoms: _66  and  _67
REMARK   30  A    between atoms: _66  and  _69
REMARK   31  A    between atoms: _69  and  _70
REMARK   32  A    between atoms: _70  and  _71
REMARK   33  A    between atoms: _71  and  _72
REMARK   34  A    between atoms: _72  and  _73
REMARK   35  A    between atoms: _77  and  _79
REMARK   36  A    between atoms: _79  and  _80
REMARK   37  A    between atoms: _79  and  _82
REMARK   38  A    between atoms: _82  and  _83
REMARK   39  A    between atoms: _85  and  _87
REMARK   40  A    between atoms: _87  and  _88
REMARK   41  A    between atoms: _87  and  _90
REMARK   42  A    between atoms: _90  and  _91
REMARK   43  A    between atoms: _96  and  _97
REMARK   44  A    between atoms: _99  and  _101
REMARK   45  A    between atoms: _101  and  _102
REMARK   46  A    between atoms: _101  and  _104
REMARK   47  A    between atoms: _106  and  _108
REMARK   48  A    between atoms: _108  and  _109
REMARK   49  A    between atoms: _108  and  _111
REMARK   50  A    between atoms: _111  and  _112
REMARK   51  A    between atoms: _117  and  _119
REMARK   52  A    between atoms: _119  and  _120
REMARK   53  A    between atoms: _119  and  _122
REMARK   54  A    between atoms: _122  and  _123
REMARK   55  A    between atoms: _126  and  _128
REMARK   56  A    between atoms: _128  and  _129
REMARK   57  A    between atoms: _128  and  _131
REMARK   58  A    between atoms: _131  and  _132
REMARK   59  A    between atoms: _132  and  _133
REMARK   60  A    between atoms: _138  and  _140
REMARK   61  A    between atoms: _140  and  _141
REMARK   62  A    between atoms: _140  and  _143
REMARK   63  A    between atoms: _143  and  _144
REMARK   64  A    between atoms: _146  and  _148
REMARK   65  A    between atoms: _148  and  _149
REMARK   66  A    between atoms: _148  and  _151
REMARK   67  A    between atoms: _151  and  _152
REMARK   68  A    between atoms: _155  and  _157
REMARK   69  A    between atoms: _157  and  _158
REMARK   70  A    between atoms: _160  and  _162
REMARK   71  A    between atoms: _162  and  _163
REMARK   72  A    between atoms: _162  and  _165
REMARK   73  A    between atoms: _165  and  _166
REMARK   74  A    between atoms: _169  and  _171
REMARK   75  A    between atoms: _171  and  _172
REMARK   76  A    between atoms: _171  and  _174
REMARK   77  A    between atoms: _174  and  _175
REMARK   78  A    between atoms: _175  and  _176
REMARK   79  A    between atoms: _179  and  _181
REMARK   80  A    between atoms: _181  and  _182
REMARK   81  A    between atoms: _181  and  _184
REMARK   82  A    between atoms: _184  and  _185
REMARK   83  A    between atoms: _188  and  _190
REMARK   84  A    between atoms: _190  and  _191
REMARK   85  A    between atoms: _190  and  _193
REMARK   86  A    between atoms: _193  and  _194
REMARK   87  A    between atoms: _197  and  _199
REMARK   88  A    between atoms: _199  and  _200
REMARK   89  A    between atoms: _199  and  _202
REMARK   90  A    between atoms: _202  and  _203
REMARK   91  A    between atoms: _206  and  _208
REMARK   92  A    between atoms: _208  and  _209
REMARK   93  A    between atoms: _208  and  _211
REMARK   94  A    between atoms: _211  and  _212
REMARK   95  A    between atoms: _215  and  _217
REMARK   96  A    between atoms: _217  and  _218
REMARK   97  A    between atoms: _217  and  _220
REMARK   98  A    between atoms: _220  and  _221
REMARK   99  A    between atoms: _224  and  _226
REMARK  100  A    between atoms: _226  and  _227
REMARK  101  A    between atoms: _229  and  _231
REMARK  102  A    between atoms: _231  and  _232
REMARK  103  A    between atoms: _231  and  _234
REMARK  104  A    between atoms: _234  and  _235
REMARK  105  A    between atoms: _235  and  _236
REMARK  106  A    between atoms: _236  and  _237
REMARK  107  A    between atoms: _237  and  _238
REMARK  108  A    between atoms: _242  and  _244
REMARK  109  A    between atoms: _244  and  _245
REMARK  110  A    between atoms: _244  and  _247
REMARK  111  A    between atoms: _247  and  _248
REMARK  112  A    between atoms: _251  and  _253
REMARK  113  A    between atoms: _253  and  _254
REMARK  114  A    between atoms: _253  and  _256
REMARK  115  A    between atoms: _256  and  _257
REMARK  116  A    between atoms: _257  and  _258
REMARK  117  A    between atoms: _260  and  _262
REMARK  118  A    between atoms: _262  and  _263
REMARK  119  A    between atoms: _262  and  _265
REMARK  120  A    between atoms: _265  and  _266
REMARK  121  A    between atoms: _266  and  _267
REMARK  122  A    between atoms: _272  and  _274
REMARK  123  A    between atoms: _274  and  _275
REMARK  124  A    between atoms: _274  and  _277
REMARK  125  A    between atoms: _277  and  _278
REMARK  126  A    between atoms: _281  and  _283
REMARK  127  A    between atoms: _283  and  _284
REMARK  128  A    between atoms: _283  and  _286
REMARK  129  A    between atoms: _286  and  _287
REMARK  130  A    between atoms: _290  and  _292
REMARK  131  A    between atoms: _292  and  _293
REMARK  132  A    between atoms: _292  and  _295
REMARK  133  A    between atoms: _295  and  _296
REMARK  134  A    between atoms: _298  and  _300
REMARK  135  A    between atoms: _300  and  _301
REMARK  136  A    between atoms: _300  and  _303
REMARK  137  A    between atoms: _303  and  _304
REMARK  138  A    between atoms: _307  and  _309
REMARK  139  A    between atoms: _309  and  _310
REMARK  140  A    between atoms: _309  and  _312
REMARK  141  A    between atoms: _312  and  _313
REMARK  142  A    between atoms: _313  and  _314
REMARK  143  A    between atoms: _314  and  _315
REMARK  144  A    between atoms: _315  and  _316
REMARK  145  A    between atoms: _320  and  _322
REMARK  146  A    between atoms: _322  and  _323
REMARK  147  A    between atoms: _322  and  _325
REMARK  148  A    between atoms: _325  and  _326
REMARK  149  A    between atoms: _329  and  _331
REMARK  150  A    between atoms: _331  and  _332
REMARK  151  A    between atoms: _331  and  _334
REMARK  152  A    between atoms: _334  and  _335
REMARK  153  A    between atoms: _335  and  _336
REMARK  154  A    between atoms: _336  and  _337
REMARK  155  A    between atoms: _346  and  _348
REMARK  156  A    between atoms: _348  and  _349
REMARK  157  A    between atoms: _348  and  _351
REMARK  158  A    between atoms: _351  and  _352
REMARK  159  A    between atoms: _354  and  _356
REMARK  160  A    between atoms: _356  and  _357
REMARK  161  A    between atoms: _356  and  _359
REMARK  162  A    between atoms: _362  and  _364
REMARK  163  A    between atoms: _364  and  _365
REMARK  164  A    between atoms: _364  and  _367
REMARK  165  A    between atoms: _367  and  _368
REMARK  166  A    between atoms: _373  and  _374
REMARK  167  A    between atoms: _376  and  _378
REMARK  168  A    between atoms: _378  and  _379
REMARK  169  A    between atoms: _378  and  _381
REMARK  170  A    between atoms: _381  and  _382
REMARK  171  A    between atoms: _386  and  _387
REMARK  172  A    between atoms: _392  and  _394
REMARK  173  A    between atoms: _394  and  _395
REMARK  174  A    between atoms: _394  and  _397
REMARK  175  A    between atoms: _397  and  _398
REMARK  176  A    between atoms: _401  and  _403
REMARK  177  A    between atoms: _403  and  _404
REMARK  178  A    between atoms: _403  and  _406
REMARK  179  A    between atoms: _406  and  _407
REMARK  180  A    between atoms: _407  and  _408
REMARK  181  A    between atoms: _408  and  _409
REMARK  182  A    between atoms: _409  and  _410
REMARK  183  A    between atoms: _414  and  _416
REMARK  184  A    between atoms: _416  and  _417
REMARK  185  A    between atoms: _416  and  _419
REMARK  186  A    between atoms: _419  and  _420
REMARK  187  A    between atoms: _426  and  _428
REMARK  188  A    between atoms: _428  and  _429
REMARK  189  A    between atoms: _428  and  _431
REMARK  190  A    between atoms: _434  and  _436
REMARK  191  A    between atoms: _436  and  _437
REMARK  192  A    between atoms: _436  and  _439
REMARK  193  A    between atoms: _442  and  _444
REMARK  194  A    between atoms: _444  and  _445
REMARK  195  A    between atoms: _447  and  _449
REMARK  196  A    between atoms: _449  and  _450
REMARK  197  A    between atoms: _449  and  _452
REMARK  198  A    between atoms: _452  and  _453
REMARK  199  A    between atoms: _458  and  _459
REMARK  200  A    between atoms: _461  and  _463
REMARK  201  A    between atoms: _463  and  _464
REMARK  202  A    between atoms: _467  and  _469
REMARK  203  A    between atoms: _469  and  _470
REMARK  204  A    between atoms: _469  and  _472
REMARK  205  A    between atoms: _472  and  _473
REMARK  206  A    between atoms: _476  and  _478
REMARK  207  A    between atoms: _478  and  _479
REMARK  208  A    between atoms: _478  and  _481
REMARK  209  A    between atoms: _481  and  _482
REMARK  210  A    between atoms: _482  and  _483
REMARK  211  A    between atoms: _483  and  MG_588
REMARK  212  A    between atoms: _485  and  _487
REMARK  213  A    between atoms: _487  and  _488
REMARK  214  A    between atoms: _487  and  _490
REMARK  215  A    between atoms: _490  and  _491
REMARK  216  A    between atoms: _496  and  _497
REMARK  217  A    between atoms: _499  and  _501
REMARK  218  A    between atoms: _501  and  _502
REMARK  219  A    between atoms: _501  and  _504
REMARK  220  A    between atoms: _504  and  _505
REMARK  221  A    between atoms: _510  and  _512
REMARK  222  A    between atoms: _512  and  _513
REMARK  223  A    between atoms: _512  and  _515
REMARK  224  A    between atoms: _515  and  _516
REMARK  225  A    between atoms: _516  and  _517
REMARK  226  A    between atoms: _520  and  _522
REMARK  227  A    between atoms: _522  and  _523
REMARK  228  A    between atoms: _522  and  _525
REMARK  229  A    between atoms: _525  and  _526
REMARK  230  A    between atoms: _531  and  _532
REMARK  231  A    between atoms: _534  and  _536
REMARK  232  A    between atoms: _536  and  _537
REMARK  233  A    between atoms: _536  and  _539
REMARK  234  A    between atoms: _539  and  _540
REMARK  235  A    between atoms: _546  and  _548
REMARK  236  A    between atoms: _548  and  _549
REMARK  237  A    between atoms: _548  and  _551
REMARK  238  A    between atoms: _551  and  _552
REMARK  239  A    between atoms: _552  and  _553
REMARK  240  A    between atoms: _553  and  _554
REMARK  241  A    between atoms: _563  and  _565
REMARK  242  A    between atoms: _565  and  _566
REMARK  243  A    between atoms: _565  and  _568
REMARK  244  A    between atoms: _571  and  _573
REMARK  245  A    between atoms: _573  and  _574
REMARK  246  A    between atoms: _573  and  _576
REMARK  247  A    between atoms: _578  and  _580
REMARK  248  A    between atoms: _580  and  _581
REMARK  249  A    between atoms: _580  and  _583
REMARK  250  A    between atoms: _583  and  _584
REMARK                            x       y       z     vdW  Elec       q    Type
REMARK                         _______ _______ _______ _____ _____    ______ ____
ROOT
ATOM      1  CA  THR A   1      14.013  74.029  47.350  0.00  0.00    +0.160 C 
ENDROOT
BRANCH   1   2
ATOM      2  N   THR A   1      14.685  74.831  48.363  0.00  0.00    -0.237 NA
ATOM      3  H   THR A   1      15.552  75.349  48.114  0.00  0.00    +0.142 HD
ENDBRANCH   1   2
BRANCH   1   4
ATOM      4  CB  THR A   1      13.068  74.894  46.490  0.00  0.00    +0.134 C 
ATOM      5  CG2 THR A   1      13.767  76.177  46.054  0.00  0.00    +0.034 C 
BRANCH   4   6
ATOM      6  OG1 THR A   1      12.690  74.164  45.317  0.00  0.00    -0.383 OA
ATOM      7  HG1 THR A   1      12.084  74.719  44.765  0.00  0.00    +0.210 HD
ENDBRANCH   4   6
ENDBRANCH   1   4
BRANCH   1   8
ATOM      8  C   THR A   1      14.997  73.358  46.403  0.00  0.00    +0.227 C 
ATOM      9  O   THR A   1      16.025  73.938  46.045  0.00  0.00    -0.287 OA
ENDBRANCH   1   8
TORSDOF 4
REMARK  Name = ../refined-set-2016/1bzy/1bzy_pocket.pdb
REMARK  250 active torsions:
REMARK  status: ('A' for Active; 'I' for Inactive)
REMARK    1  A    between atoms: _1  and  _3
REMARK    2  A    between atoms: _3  and  _4
REMARK    3  A    between atoms: _3  and  _6
REMARK    4  A    between atoms: _9  and  _11
REMARK    5  A    between atoms: _11  and  _12
REMARK    6  A    between atoms: _11  and  _14
REMARK    7  A    between atoms: _14  and  _15
REMARK    8  A    between atoms: _18  and  _20
REMARK    9  A    between atoms: _20  and  _21
REMARK   10  A    between atoms: _20  and  _23
REMARK   11  A    between atoms: _23  and  _24
REMARK   12  A    between atoms: _24  and  _25
REMARK   13  A    between atoms: _25  and  _26
REMARK   14  A    between atoms: _26  and  _27
REMARK   15  A    between atoms: _31  and  _33
REMARK   16  A    between atoms: _33  and  _34
REMARK   17  A    between atoms: _36  and  _38
REMARK   18  A    between atoms: _38  and  _39
REMARK   19  A    between atoms: _41  and  _43
REMARK   20  A    between atoms: _43  and  _44
REMARK   21  A    between atoms: _43  and  _46
REMARK   22  A    between atoms: _46  and  _47
REMARK   23  A    between atoms: _52  and  _53
REMARK   24  A    between atoms: _55  and  _57
REMARK   25  A    between atoms: _57  and  _58
REMARK   26  A    between atoms: _57  and  _60
REMARK   27  A    between atoms: _60  and  _61
REMARK   28  A    between atoms: _64  and  _66
REMARK   29  A    between atoms: _66  and  _67
REMARK   30  A    between atoms: _66  and  _69
REMARK   31  A    between atoms: _69  and  _70
REMARK   32  A    between atoms: _70  and  _71
REMARK   33  A    between atoms: _71  and  _72
REMARK   34  A    between atoms: _72  and  _73
REMARK   35  A    between atoms: _77  and  _79
REMARK   36  A    between atoms: _79  and  _80
REMARK   37  A    between atoms: _79  and  _82
REMARK   38  A    between atoms: _82  and  _83
REMARK   39  A    between atoms: _85  and  _87
REMARK   40  A    between atoms: _87  and  _88
REMARK   41  A    between atoms: _87  and  _90
REMARK   42  A    between atoms: _90  and  _91
REMARK   43  A    between atoms: _96  and  _97
REMARK   44  A    between atoms: _99  and  _101
REMARK   45  A    between atoms: _101  and  _102
REMARK   46  A    between atoms: _101  and  _104
REMARK   47  A    between atoms: _106  and  _108
REMARK   48  A    between atoms: _108  and  _109
REMARK   49  A    between atoms: _108  and  _111
REMARK   50  A    between atoms: _111  and  _112
REMARK   51  A    between atoms: _117  and  _119
REMARK   52  A    between atoms: _119  and  _120
REMARK   53  A    between atoms: _119  and  _122
REMARK   54  A    between atoms: _122  and  _123
REMARK   55  A    between atoms: _126  and  _128
REMARK   56  A    between atoms: _128  and  _129
REMARK   57  A    between atoms: _128  and  _131
REMARK   58  A    between atoms: _131  and  _132
REMARK   59  A    between atoms: _132  and  _133
REMARK   60  A    between atoms: _138  and  _140
REMARK   61  A    between atoms: _140  and  _141
REMARK   62  A    between atoms: _140  and  _143
REMARK   63  A    between atoms: _143  and  _144
REMARK   64  A    between atoms: _146  and  _148
REMARK   65  A    between atoms: _148  and  _149
REMARK   66  A    between atoms: _148  and  _151
REMARK   67  A    between atoms: _151  and  _152
REMARK   68  A    between atoms: _155  and  _157
REMARK   69  A    between atoms: _157  and  _158
REMARK   70  A    between atoms: _160  and  _162
REMARK   71  A    between atoms: _162  and  _163
REMARK   72  A    between atoms: _162  and  _165
REMARK   73  A    between atoms: _165  and  _166
REMARK   74  A    between atoms: _169  and  _171
REMARK   75  A    between atoms: _171  and  _172
REMARK   76  A    between atoms: _171  and  _174
REMARK   77  A    between atoms: _174  and  _175
REMARK   78  A    between atoms: _175  and  _176
REMARK   79  A    between atoms: _179  and  _181
REMARK   80  A    between atoms: _181  and  _182
REMARK   81  A    between atoms: _181  and  _184
REMARK   82  A    between atoms: _184  and  _185
REMARK   83  A    between atoms: _188  and  _190
REMARK   84  A    between atoms: _190  and  _191
REMARK   85  A    between atoms: _190  and  _193
REMARK   86  A    between atoms: _193  and  _194
REMARK   87  A    between atoms: _197  and  _199
REMARK   88  A    between atoms: _199  and  _200
REMARK   89  A    between atoms: _199  and  _202
REMARK   90  A    between atoms: _202  and  _203
REMARK   91  A    between atoms: _206  and  _208
REMARK   92  A    between atoms: _208  and  _209
REMARK   93  A    between atoms: _208  and  _211
REMARK   94  A    between atoms: _211  and  _212
REMARK   95  A    between atoms: _215  and  _217
REMARK   96  A    between atoms: _217  and  _218
REMARK   97  A    between atoms: _217  and  _220
REMARK   98  A    between atoms: _220  and  _221
REMARK   99  A    between atoms: _224  and  _226
REMARK  100  A    between atoms: _226  and  _227
REMARK  101  A    between atoms: _229  and  _231
REMARK  102  A    between atoms: _231  and  _232
REMARK  103  A    between atoms: _231  and  _234
REMARK  104  A    between atoms: _234  and  _235
REMARK  105  A    between atoms: _235  and  _236
REMARK  106  A    between atoms: _236  and  _237
REMARK  107  A    between atoms: _237  and  _238
REMARK  108  A    between atoms: _242  and  _244
REMARK  109  A    between atoms: _244  and  _245
REMARK  110  A    between atoms: _244  and  _247
REMARK  111  A    between atoms: _247  and  _248
REMARK  112  A    between atoms: _251  and  _253
REMARK  113  A    between atoms: _253  and  _254
REMARK  114  A    between atoms: _253  and  _256
REMARK  115  A    between atoms: _256  and  _257
REMARK  116  A    between atoms: _257  and  _258
REMARK  117  A    between atoms: _260  and  _262
REMARK  118  A    between atoms: _262  and  _263
REMARK  119  A    between atoms: _262  and  _265
REMARK  120  A    between atoms: _265  and  _266
REMARK  121  A    between atoms: _266  and  _267
REMARK  122  A    between atoms: _272  and  _274
REMARK  123  A    between atoms: _274  and  _275
REMARK  124  A    between atoms: _274  and  _277
REMARK  125  A    between atoms: _277  and  _278
REMARK  126  A    between atoms: _281  and  _283
REMARK  127  A    between atoms: _283  and  _284
REMARK  128  A    between atoms: _283  and  _286
REMARK  129  A    between atoms: _286  and  _287
REMARK  130  A    between atoms: _290  and  _292
REMARK  131  A    between atoms: _292  and  _293
REMARK  132  A    between atoms: _292  and  _295
REMARK  133  A    between atoms: _295  and  _296
REMARK  134  A    between atoms: _298  and  _300
REMARK  135  A    between atoms: _300  and  _301
REMARK  136  A    between atoms: _300  and  _303
REMARK  137  A    between atoms: _303  and  _304
REMARK  138  A    between atoms: _307  and  _309
REMARK  139  A    between atoms: _309  and  _310
REMARK  140  A    between atoms: _309  and  _312
REMARK  141  A    between atoms: _312  and  _313
REMARK  142  A    between atoms: _313  and  _314
REMARK  143  A    between atoms: _314  and  _315
REMARK  144  A    between atoms: _315  and  _316
REMARK  145  A    between atoms: _320  and  _322
REMARK  146  A    between atoms: _322  and  _323
REMARK  147  A    between atoms: _322  and  _325
REMARK  148  A    between atoms: _325  and  _326
REMARK  149  A    between atoms: _329  and  _331
REMARK  150  A    between atoms: _331  and  _332
REMARK  151  A    between atoms: _331  and  _334
REMARK  152  A    between atoms: _334  and  _335
REMARK  153  A    between atoms: _335  and  _336
REMARK  154  A    between atoms: _336  and  _337
REMARK  155  A    between atoms: _346  and  _348
REMARK  156  A    between atoms: _348  and  _349
REMARK  157  A    between atoms: _348  and  _351
REMARK  158  A    between atoms: _351  and  _352
REMARK  159  A    between atoms: _354  and  _356
REMARK  160  A    between atoms: _356  and  _357
REMARK  161  A    between atoms: _356  and  _359
REMARK  162  A    between atoms: _362  and  _364
REMARK  163  A    between atoms: _364  and  _365
REMARK  164  A    between atoms: _364  and  _367
REMARK  165  A    between atoms: _367  and  _368
REMARK  166  A    between atoms: _373  and  _374
REMARK  167  A    between atoms: _376  and  _378
REMARK  168  A    between atoms: _378  and  _379
REMARK  169  A    between atoms: _378  and  _381
REMARK  170  A    between atoms: _381  and  _382
REMARK  171  A    between atoms: _386  and  _387
REMARK  172  A    between atoms: _392  and  _394
REMARK  173  A    between atoms: _394  and  _395
REMARK  174  A    between atoms: _394  and  _397
REMARK  175  A    between atoms: _397  and  _398
REMARK  176  A    between atoms: _401  and  _403
REMARK  177  A    between atoms: _403  and  _404
REMARK  178  A    between atoms: _403  and  _406
REMARK  179  A    between atoms: _406  and  _407
REMARK  180  A    between atoms: _407  and  _408
REMARK  181  A    between atoms: _408  and  _409
REMARK  182  A    between atoms: _409  and  _410
REMARK  183  A    between atoms: _414  and  _416
REMARK  184  A    between atoms: _416  and  _417
REMARK  185  A    between atoms: _416  and  _419
REMARK  186  A    between atoms: _419  and  _420
REMARK  187  A    between atoms: _426  and  _428
REMARK  188  A    between atoms: _428  and  _429
REMARK  189  A    between atoms: _428  and  _431
REMARK  190  A    between atoms: _434  and  _436
REMARK  191  A    between atoms: _436  and  _437
REMARK  192  A    between atoms: _436  and  _439
REMARK  193  A    between atoms: _442  and  _444
REMARK  194  A    between atoms: _444  and  _445
REMARK  195  A    between atoms: _447  and  _449
REMARK  196  A    between atoms: _449  and  _450
REMARK  197  A    between atoms: _449  and  _452
REMARK  198  A    between atoms: _452  and  _453
REMARK  199  A    between atoms: _458  and  _459
REMARK  200  A    between atoms: _461  and  _463
REMARK  201  A    between atoms: _463  and  _464
REMARK  202  A    between atoms: _467  and  _469
REMARK  203  A    between atoms: _469  and  _470
REMARK  204  A    between atoms: _469  and  _472
REMARK  205  A    between atoms: _472  and  _473
REMARK  206  A    between atoms: _476  and  _478
REMARK  207  A    between atoms: _478  and  _479
REMARK  208  A    between atoms: _478  and  _481
REMARK  209  A    between atoms: _481  and  _482
REMARK  210  A    between atoms: _482  and  _483
REMARK  211  A    between atoms: _483  and  MG_588
REMARK  212  A    between atoms: _485  and  _487
REMARK  213  A    between atoms: _487  and  _488
REMARK  214  A    between atoms: _487  and  _490
REMARK  215  A    between atoms: _490  and  _491
REMARK  216  A    between atoms: _496  and  _497
REMARK  217  A    between atoms: _499  and  _501
REMARK  218  A    between atoms: _501  and  _502
REMARK  219  A    between atoms: _501  and  _504
REMARK  220  A    between atoms: _504  and  _505
REMARK  221  A    between atoms: _510  and  _512
REMARK  222  A    between atoms: _512  and  _513
REMARK  223  A    between atoms: _512  and  _515
REMARK  224  A    between atoms: _515  and  _516
REMARK  225  A    between atoms: _516  and  _517
REMARK  226  A    between atoms: _520  and  _522
REMARK  227  A    between atoms: _522  and  _523
REMARK  228  A    between atoms: _522  and  _525
REMARK  229  A    between atoms: _525  and  _526
REMARK  230  A    between atoms: _531  and  _532
REMARK  231  A    between atoms: _534  and  _536
REMARK  232  A    between atoms: _536  and  _537
REMARK  233  A    between atoms: _536  and  _539
REMARK  234  A    between atoms: _539  and  _540
REMARK  235  A    between atoms: _546  and  _548
REMARK  236  A    between atoms: _548  and  _549
REMARK  237  A    between atoms: _548  and  _551
REMARK  238  A    between atoms: _551  and  _552
REMARK  239  A    between atoms: _552  and  _553
REMARK  240  A    between atoms: _553  and  _554
REMARK  241  A    between atoms: _563  and  _565
REMARK  242  A    between atoms: _565  and  _566
REMARK  243  A    between atoms: _565  and  _568
REMARK  244  A    between atoms: _571  and  _573
REMARK  245  A    between atoms: _573  and  _574
REMARK  246  A    between atoms: _573  and  _576
REMARK  247  A    between atoms: _578  and  _580
REMARK  248  A    between atoms: _580  and  _581
REMARK  249  A    between atoms: _580  and  _583
REMARK  250  A    between atoms: _583  and  _584
REMARK                            x       y       z     vdW  Elec       q    Type
REMARK                         _______ _______ _______ _____ _____    ______ ____
ROOT
ATOM      1  C   ARG A   1      15.564  74.874  42.197  0.00  0.00    +0.238 C 
ATOM      2  N   SER A   2      15.985  75.243  43.403  0.00  0.00    -0.295 N 
ATOM      3  H   SER A   2      15.656  74.714  44.236  0.00  0.00    +0.150 HD
ATOM      4  O   ARG A   1      15.914  75.446  41.162  0.00  0.00    -0.274 OA
ENDROOT
BRANCH   1   5
ATOM      5  CA  ARG A   1      14.604  73.688  42.150  0.00  0.00    +0.145 C 
BRANCH   5   6
ATOM      6  N   ARG A   1      14.631  72.913  43.388  0.00  0.00    -0.238 NA
ATOM      7  H   ARG A   1      13.800  72.927  44.013  0.00  0.00    +0.142 HD
ENDBRANCH   5   6
BRANCH   5   8
ATOM      8  CB  ARG A   1      13.187  74.197  41.875  0.00  0.00    +0.030 C 
BRANCH   8   9
ATOM      9  CG  ARG A   1      12.097  73.172  42.143  0.00  0.00    +0.045 C 
BRANCH   9  10
ATOM     10  CD  ARG A   1      10.715  73.730  41.826  0.00  0.00    +0.174 C 
BRANCH  10  11
ATOM     11  NE  ARG A   1      10.330  74.810  42.735  0.00  0.00    -0.265 N 
ATOM     12  CZ  ARG A   1       9.973  74.638  44.007  0.00  0.00    +0.342 C 
ATOM     13  NH2 ARG A   1       9.645  75.687  44.749  0.00  0.00    -0.292 N 
ATOM     14 HH21 ARG A   1       9.366  75.555  45.742  0.00  0.00    +0.255 HD
ATOM     15 HH22 ARG A   1       9.667  76.642  44.338  0.00  0.00    +0.255 HD
ATOM     16  NH1 ARG A   1       9.943  73.423  44.542  0.00  0.00    -0.292 N 
ATOM     17 HH11 ARG A   1       9.663  73.299  45.536  0.00  0.00    +0.255 HD
ATOM     18 HH12 ARG A   1      10.200  72.595  43.967  0.00  0.00    +0.255 HD
ATOM     19  HE  ARG A   1      10.335  75.781  42.362  0.00  0.00    +0.259 HD
ENDBRANCH  10  11
ENDBRANCH   9  10
ENDBRANCH   8   9
ENDBRANCH   5   8
ENDBRANCH   1   5
BRANCH   2  20
ATOM     20  CA  SER A   2      16.896  76.369  43.592  0.00  0.00    +0.178 C 
BRANCH  20  21
ATOM     21  C   SER A   2      18.174  76.250  42.772  0.00  0.00    +0.243 C 
ATOM     22  O   SER A   2      18.702  75.155  42.570  0.00  0.00    -0.273 OA
ATOM     23  N   VAL A   3      18.664  77.391  42.302  0.00  0.00    -0.298 N 
ATOM     24  H   VAL A   3      18.160  78.278  42.504  0.00  0.00    +0.150 HD
BRANCH  23  25
ATOM     25  CA  VAL A   3      19.885  77.437  41.512  0.00  0.00    +0.137 C 
BRANCH  25  26
ATOM     26  CB  VAL A   3      19.908  78.684  40.608  0.00  0.00    +0.026 C 
ATOM     27  CG2 VAL A   3      21.321  78.963  40.132  0.00  0.00    +0.002 C 
ATOM     28  CG1 VAL A   3      18.975  78.479  39.428  0.00  0.00    +0.002 C 
ENDBRANCH  25  26
BRANCH  25  29
ATOM     29  C   VAL A   3      21.077  77.478  42.460  0.00  0.00    +0.227 C 
ATOM     30  O   VAL A   3      22.171  77.024  42.124  0.00  0.00    -0.286 OA
ENDBRANCH  25  29
ENDBRANCH  23  25
ENDBRANCH  20  21
BRANCH  20  31
ATOM     31  CB  SER A   2      17.266  76.512  45.071  0.00  0.00    +0.166 C 
BRANCH  31  32
ATOM     32  OG  SER A   2      18.524  77.151  45.212  0.00  0.00    -0.380 OA
ATOM     33  H   SER A   2      18.745  77.234  46.174  0.00  0.00    +0.211 HD
ENDBRANCH  31  32
ENDBRANCH  20  31
ENDBRANCH   2  20
TORSDOF 13
REMARK  Name = ../refined-set-2016/1bzy/1bzy_pocket.pdb
REMARK  250 active torsions:
REMARK  status: ('A' for Active; 'I' for Inactive)
REMARK    1  A    between atoms: _1  and  _3
REMARK    2  A    between atoms: _3  and  _4
REMARK    3  A    between atoms: _3  and  _6
REMARK    4  A    between atoms: _9  and  _11
REMARK    5  A    between atoms: _11  and  _12
REMARK    6  A    between atoms: _11  and  _14
REMARK    7  A    between atoms: _14  and  _15
REMARK    8  A    between atoms: _18  and  _20
REMARK    9  A    between atoms: _20  and  _21
REMARK   10  A    between atoms: _20  and  _23
REMARK   11  A    between atoms: _23  and  _24
REMARK   12  A    between atoms: _24  and  _25
REMARK   13  A    between atoms: _25  and  _26
REMARK   14  A    between atoms: _26  and  _27
REMARK   15  A    between atoms: _31  and  _33
REMARK   16  A    between atoms: _33  and  _34
REMARK   17  A    between atoms: _36  and  _38
REMARK   18  A    between atoms: _38  and  _39
REMARK   19  A    between atoms: _41  and  _43
REMARK   20  A    between atoms: _43  and  _44
REMARK   21  A    between atoms: _43  and  _46
REMARK   22  A    between atoms: _46  and  _47
REMARK   23  A    between atoms: _52  and  _53
REMARK   24  A    between atoms: _55  and  _57
REMARK   25  A    between atoms: _57  and  _58
REMARK   26  A    between atoms: _57  and  _60
REMARK   27  A    between atoms: _60  and  _61
REMARK   28  A    between atoms: _64  and  _66
REMARK   29  A    between atoms: _66  and  _67
REMARK   30  A    between atoms: _66  and  _69
REMARK   31  A    between atoms: _69  and  _70
REMARK   32  A    between atoms: _70  and  _71
REMARK   33  A    between atoms: _71  and  _72
REMARK   34  A    between atoms: _72  and  _73
REMARK   35  A    between atoms: _77  and  _79
REMARK   36  A    between atoms: _79  and  _80
REMARK   37  A    between atoms: _79  and  _82
REMARK   38  A    between atoms: _82  and  _83
REMARK   39  A    between atoms: _85  and  _87
REMARK   40  A    between atoms: _87  and  _88
REMARK   41  A    between atoms: _87  and  _90
REMARK   42  A    between atoms: _90  and  _91
REMARK   43  A    between atoms: _96  and  _97
REMARK   44  A    between atoms: _99  and  _101
REMARK   45  A    between atoms: _101  and  _102
REMARK   46  A    between atoms: _101  and  _104
REMARK   47  A    between atoms: _106  and  _108
REMARK   48  A    between atoms: _108  and  _109
REMARK   49  A    between atoms: _108  and  _111
REMARK   50  A    between atoms: _111  and  _112
REMARK   51  A    between atoms: _117  and  _119
REMARK   52  A    between atoms: _119  and  _120
REMARK   53  A    between atoms: _119  and  _122
REMARK   54  A    between atoms: _122  and  _123
REMARK   55  A    between atoms: _126  and  _128
REMARK   56  A    between atoms: _128  and  _129
REMARK   57  A    between atoms: _128  and  _131
REMARK   58  A    between atoms: _131  and  _132
REMARK   59  A    between atoms: _132  and  _133
REMARK   60  A    between atoms: _138  and  _140
REMARK   61  A    between atoms: _140  and  _141
REMARK   62  A    between atoms: _140  and  _143
REMARK   63  A    between atoms: _143  and  _144
REMARK   64  A    between atoms: _146  and  _148
REMARK   65  A    between atoms: _148  and  _149
REMARK   66  A    between atoms: _148  and  _151
REMARK   67  A    between atoms: _151  and  _152
REMARK   68  A    between atoms: _155  and  _157
REMARK   69  A    between atoms: _157  and  _158
REMARK   70  A    between atoms: _160  and  _162
REMARK   71  A    between atoms: _162  and  _163
REMARK   72  A    between atoms: _162  and  _165
REMARK   73  A    between atoms: _165  and  _166
REMARK   74  A    between atoms: _169  and  _171
REMARK   75  A    between atoms: _171  and  _172
REMARK   76  A    between atoms: _171  and  _174
REMARK   77  A    between atoms: _174  and  _175
REMARK   78  A    between atoms: _175  and  _176
REMARK   79  A    between atoms: _179  and  _181
REMARK   80  A    between atoms: _181  and  _182
REMARK   81  A    between atoms: _181  and  _184
REMARK   82  A    between atoms: _184  and  _185
REMARK   83  A    between atoms: _188  and  _190
REMARK   84  A    between atoms: _190  and  _191
REMARK   85  A    between atoms: _190  and  _193
REMARK   86  A    between atoms: _193  and  _194
REMARK   87  A    between atoms: _197  and  _199
REMARK   88  A    between atoms: _199  and  _200
REMARK   89  A    between atoms: _199  and  _202
REMARK   90  A    between atoms: _202  and  _203
REMARK   91  A    between atoms: _206  and  _208
REMARK   92  A    between atoms: _208  and  _209
REMARK   93  A    between atoms: _208  and  _211
REMARK   94  A    between atoms: _211  and  _212
REMARK   95  A    between atoms: _215  and  _217
REMARK   96  A    between atoms: _217  and  _218
REMARK   97  A    between atoms: _217  and  _220
REMARK   98  A    between atoms: _220  and  _221
REMARK   99  A    between atoms: _224  and  _226
REMARK  100  A    between atoms: _226  and  _227
REMARK  101  A    between atoms: _229  and  _231
REMARK  102  A    between atoms: _231  and  _232
REMARK  103  A    between atoms: _231  and  _234
REMARK  104  A    between atoms: _234  and  _235
REMARK  105  A    between atoms: _235  and  _236
REMARK  106  A    between atoms: _236  and  _237
REMARK  107  A    between atoms: _237  and  _238
REMARK  108  A    between atoms: _242  and  _244
REMARK  109  A    between atoms: _244  and  _245
REMARK  110  A    between atoms: _244  and  _247
REMARK  111  A    between atoms: _247  and  _248
REMARK  112  A    between atoms: _251  and  _253
REMARK  113  A    between atoms: _253  and  _254
REMARK  114  A    between atoms: _253  and  _256
REMARK  115  A    between atoms: _256  and  _257
REMARK  116  A    between atoms: _257  and  _258
REMARK  117  A    between atoms: _260  and  _262
REMARK  118  A    between atoms: _262  and  _263
REMARK  119  A    between atoms: _262  and  _265
REMARK  120  A    between atoms: _265  and  _266
REMARK  121  A    between atoms: _266  and  _267
REMARK  122  A    between atoms: _272  and  _274
REMARK  123  A    between atoms: _274  and  _275
REMARK  124  A    between atoms: _274  and  _277
REMARK  125  A    between atoms: _277  and  _278
REMARK  126  A    between atoms: _281  and  _283
REMARK  127  A    between atoms: _283  and  _284
REMARK  128  A    between atoms: _283  and  _286
REMARK  129  A    between atoms: _286  and  _287
REMARK  130  A    between atoms: _290  and  _292
REMARK  131  A    between atoms: _292  and  _293
REMARK  132  A    between atoms: _292  and  _295
REMARK  133  A    between atoms: _295  and  _296
REMARK  134  A    between atoms: _298  and  _300
REMARK  135  A    between atoms: _300  and  _301
REMARK  136  A    between atoms: _300  and  _303
REMARK  137  A    between atoms: _303  and  _304
REMARK  138  A    between atoms: _307  and  _309
REMARK  139  A    between atoms: _309  and  _310
REMARK  140  A    between atoms: _309  and  _312
REMARK  141  A    between atoms: _312  and  _313
REMARK  142  A    between atoms: _313  and  _314
REMARK  143  A    between atoms: _314  and  _315
REMARK  144  A    between atoms: _315  and  _316
REMARK  145  A    between atoms: _320  and  _322
REMARK  146  A    between atoms: _322  and  _323
REMARK  147  A    between atoms: _322  and  _325
REMARK  148  A    between atoms: _325  and  _326
REMARK  149  A    between atoms: _329  and  _331
REMARK  150  A    between atoms: _331  and  _332
REMARK  151  A    between atoms: _331  and  _334
REMARK  152  A    between atoms: _334  and  _335
REMARK  153  A    between atoms: _335  and  _336
REMARK  154  A    between atoms: _336  and  _337
REMARK  155  A    between atoms: _346  and  _348
REMARK  156  A    between atoms: _348  and  _349
REMARK  157  A    between atoms: _348  and  _351
REMARK  158  A    between atoms: _351  and  _352
REMARK  159  A    between atoms: _354  and  _356
REMARK  160  A    between atoms: _356  and  _357
REMARK  161  A    between atoms: _356  and  _359
REMARK  162  A    between atoms: _362  and  _364
REMARK  163  A    between atoms: _364  and  _365
REMARK  164  A    between atoms: _364  and  _367
REMARK  165  A    between atoms: _367  and  _368
REMARK  166  A    between atoms: _373  and  _374
REMARK  167  A    between atoms: _376  and  _378
REMARK  168  A    between atoms: _378  and  _379
REMARK  169  A    between atoms: _378  and  _381
REMARK  170  A    between atoms: _381  and  _382
REMARK  171  A    between atoms: _386  and  _387
REMARK  172  A    between atoms: _392  and  _394
REMARK  173  A    between atoms: _394  and  _395
REMARK  174  A    between atoms: _394  and  _397
REMARK  175  A    between atoms: _397  and  _398
REMARK  176  A    between atoms: _401  and  _403
REMARK  177  A    between atoms: _403  and  _404
REMARK  178  A    between atoms: _403  and  _406
REMARK  179  A    between atoms: _406  and  _407
REMARK  180  A    between atoms: _407  and  _408
REMARK  181  A    between atoms: _408  and  _409
REMARK  182  A    between atoms: _409  and  _410
REMARK  183  A    between atoms: _414  and  _416
REMARK  184  A    between atoms: _416  and  _417
REMARK  185  A    between atoms: _416  and  _419
REMARK  186  A    between atoms: _419  and  _420
REMARK  187  A    between atoms: _426  and  _428
REMARK  188  A    between atoms: _428  and  _429
REMARK  189  A    between atoms: _428  and  _431
REMARK  190  A    between atoms: _434  and  _436
REMARK  191  A    between atoms: _436  and  _437
REMARK  192  A    between atoms: _436  and  _439
REMARK  193  A    between atoms: _442  and  _444
REMARK  194  A    between atoms: _444  and  _445
REMARK  195  A    between atoms: _447  and  _449
REMARK  196  A    between atoms: _449  and  _450
REMARK  197  A    between atoms: _449  and  _452
REMARK  198  A    between atoms: _452  and  _453
REMARK  199  A    between atoms: _458  and  _459
REMARK  200  A    between atoms: _461  and  _463
REMARK  201  A    between atoms: _463  and  _464
REMARK  202  A    between atoms: _467  and  _469
REMARK  203  A    between atoms: _469  and  _470
REMARK  204  A    between atoms: _469  and  _472
REMARK  205  A    between atoms: _472  and  _473
REMARK  206  A    between atoms: _476  and  _478
REMARK  207  A    between atoms: _478  and  _479
REMARK  208  A    between atoms: _478  and  _481
REMARK  209  A    between atoms: _481  and  _482
REMARK  210  A    between atoms: _482  and  _483
REMARK  211  A    between atoms: _483  and  MG_588
REMARK  212  A    between atoms: _485  and  _487
REMARK  213  A    between atoms: _487  and  _488
REMARK  214  A    between atoms: _487  and  _490
REMARK  215  A    between atoms: _490  and  _491
REMARK  216  A    between atoms: _496  and  _497
REMARK  217  A    between atoms: _499  and  _501
REMARK  218  A    between atoms: _501  and  _502
REMARK  219  A    between atoms: _501  and  _504
REMARK  220  A    between atoms: _504  and  _505
REMARK  221  A    between atoms: _510  and  _512
REMARK  222  A    between atoms: _512  and  _513
REMARK  223  A    between atoms: _512  and  _515
REMARK  224  A    between atoms: _515  and  _516
REMARK  225  A    between atoms: _516  and  _517
REMARK  226  A    between atoms: _520  and  _522
REMARK  227  A    between atoms: _522  and  _523
REMARK  228  A    between atoms: _522  and  _525
REMARK  229  A    between atoms: _525  and  _526
REMARK  230  A    between atoms: _531  and  _532
REMARK  231  A    between atoms: _534  and  _536
REMARK  232  A    between atoms: _536  and  _537
REMARK  233  A    between atoms: _536  and  _539
REMARK  234  A    between atoms: _539  and  _540
REMARK  235  A    between atoms: _546  and  _548
REMARK  236  A    between atoms: _548  and  _549
REMARK  237  A    between atoms: _548  and  _551
REMARK  238  A    between atoms: _551  and  _552
REMARK  239  A    between atoms: _552  and  _553
REMARK  240  A    between atoms: _553  and  _554
REMARK  241  A    between atoms: _563  and  _565
REMARK  242  A    between atoms: _565  and  _566
REMARK  243  A    between atoms: _565  and  _568
REMARK  244  A    between atoms: _571  and  _573
REMARK  245  A    between atoms: _573  and  _574
REMARK  246  A    between atoms: _573  and  _576
REMARK  247  A    between atoms: _578  and  _580
REMARK  248  A    between atoms: _580  and  _581
REMARK  249  A    between atoms: _580  and  _583
REMARK  250  A    between atoms: _583  and  _584
REMARK                            x       y       z     vdW  Elec       q    Type
REMARK                         _______ _______ _______ _____ _____    ______ ____
ROOT
ATOM      1  CG  TYR A   1      21.480  84.312  44.204  0.00  0.00    -0.020 A 
ATOM      2  CD2 TYR A   1      20.515  85.052  44.884  0.00  0.00    -0.001 A 
ATOM      3  CE2 TYR A   1      20.741  86.384  45.230  0.00  0.00    +0.036 A 
ATOM      4  CZ  TYR A   1      21.940  86.983  44.895  0.00  0.00    +0.134 A 
ATOM      5  CE1 TYR A   1      22.917  86.267  44.217  0.00  0.00    +0.036 A 
ATOM      6  CD1 TYR A   1      22.682  84.938  43.875  0.00  0.00    -0.001 A 
ENDROOT
BRANCH   4   7
ATOM      7  OH  TYR A   1      22.172  88.292  45.242  0.00  0.00    -0.506 OA
ATOM      8  HH  TYR A   1      23.072  88.561  44.928  0.00  0.00    +0.292 HD
ENDBRANCH   4   7
BRANCH   1   9
ATOM      9  CB  TYR A   1      21.241  82.863  43.855  0.00  0.00    +0.051 C 
BRANCH   9  10
ATOM     10  CA  TYR A   1      22.002  81.910  44.776  0.00  0.00    +0.137 C 
BRANCH  10  11
ATOM     11  N   TYR A   1      21.648  80.524  44.495  0.00  0.00    -0.239 NA
ATOM     12  H   TYR A   1      20.818  80.318  43.903  0.00  0.00    +0.142 HD
ENDBRANCH  10  11
BRANCH  10  13
ATOM     13  C   TYR A   1      21.730  82.308  46.225  0.00  0.00    +0.224 C 
ATOM     14  O   TYR A   1      20.683  81.973  46.785  0.00  0.00    -0.287 OA
ENDBRANCH  10  13
ENDBRANCH   9  10
ENDBRANCH   1   9
TORSDOF 5
REMARK  Name = ../refined-set-2016/1bzy/1bzy_pocket.pdb
REMARK  250 active torsions:
REMARK  status: ('A' for Active; 'I' for Inactive)
REMARK    1  A    between atoms: _1  and  _3
REMARK    2  A    between atoms: _3  and  _4
REMARK    3  A    between atoms: _3  and  _6
REMARK    4  A    between atoms: _9  and  _11
REMARK    5  A    between atoms: _11  and  _12
REMARK    6  A    between atoms: _11  and  _14
REMARK    7  A    between atoms: _14  and  _15
REMARK    8  A    between atoms: _18  and  _20
REMARK    9  A    between atoms: _20  and  _21
REMARK   10  A    between atoms: _20  and  _23
REMARK   11  A    between atoms: _23  and  _24
REMARK   12  A    between atoms: _24  and  _25
REMARK   13  A    between atoms: _25  and  _26
REMARK   14  A    between atoms: _26  and  _27
REMARK   15  A    between atoms: _31  and  _33
REMARK   16  A    between atoms: _33  and  _34
REMARK   17  A    between atoms: _36  and  _38
REMARK   18  A    between atoms: _38  and  _39
REMARK   19  A    between atoms: _41  and  _43
REMARK   20  A    between atoms: _43  and  _44
REMARK   21  A    between atoms: _43  and  _46
REMARK   22  A    between atoms: _46  and  _47
REMARK   23  A    between atoms: _52  and  _53
REMARK   24  A    between atoms: _55  and  _57
REMARK   25  A    between atoms: _57  and  _58
REMARK   26  A    between atoms: _57  and  _60
REMARK   27  A    between atoms: _60  and  _61
REMARK   28  A    between atoms: _64  and  _66
REMARK   29  A    between atoms: _66  and  _67
REMARK   30  A    between atoms: _66  and  _69
REMARK   31  A    between atoms: _69  and  _70
REMARK   32  A    between atoms: _70  and  _71
REMARK   33  A    between atoms: _71  and  _72
REMARK   34  A    between atoms: _72  and  _73
REMARK   35  A    between atoms: _77  and  _79
REMARK   36  A    between atoms: _79  and  _80
REMARK   37  A    between atoms: _79  and  _82
REMARK   38  A    between atoms: _82  and  _83
REMARK   39  A    between atoms: _85  and  _87
REMARK   40  A    between atoms: _87  and  _88
REMARK   41  A    between atoms: _87  and  _90
REMARK   42  A    between atoms: _90  and  _91
REMARK   43  A    between atoms: _96  and  _97
REMARK   44  A    between atoms: _99  and  _101
REMARK   45  A    between atoms: _101  and  _102
REMARK   46  A    between atoms: _101  and  _104
REMARK   47  A    between atoms: _106  and  _108
REMARK   48  A    between atoms: _108  and  _109
REMARK   49  A    between atoms: _108  and  _111
REMARK   50  A    between atoms: _111  and  _112
REMARK   51  A    between atoms: _117  and  _119
REMARK   52  A    between atoms: _119  and  _120
REMARK   53  A    between atoms: _119  and  _122
REMARK   54  A    between atoms: _122  and  _123
REMARK   55  A    between atoms: _126  and  _128
REMARK   56  A    between atoms: _128  and  _129
REMARK   57  A    between atoms: _128  and  _131
REMARK   58  A    between atoms: _131  and  _132
REMARK   59  A    between atoms: _132  and  _133
REMARK   60  A    between atoms: _138  and  _140
REMARK   61  A    between atoms: _140  and  _141
REMARK   62  A    between atoms: _140  and  _143
REMARK   63  A    between atoms: _143  and  _144
REMARK   64  A    between atoms: _146  and  _148
REMARK   65  A    between atoms: _148  and  _149
REMARK   66  A    between atoms: _148  and  _151
REMARK   67  A    between atoms: _151  and  _152
REMARK   68  A    between atoms: _155  and  _157
REMARK   69  A    between atoms: _157  and  _158
REMARK   70  A    between atoms: _160  and  _162
REMARK   71  A    between atoms: _162  and  _163
REMARK   72  A    between atoms: _162  and  _165
REMARK   73  A    between atoms: _165  and  _166
REMARK   74  A    between atoms: _169  and  _171
REMARK   75  A    between atoms: _171  and  _172
REMARK   76  A    between atoms: _171  and  _174
REMARK   77  A    between atoms: _174  and  _175
REMARK   78  A    between atoms: _175  and  _176
REMARK   79  A    between atoms: _179  and  _181
REMARK   80  A    between atoms: _181  and  _182
REMARK   81  A    between atoms: _181  and  _184
REMARK   82  A    between atoms: _184  and  _185
REMARK   83  A    between atoms: _188  and  _190
REMARK   84  A    between atoms: _190  and  _191
REMARK   85  A    between atoms: _190  and  _193
REMARK   86  A    between atoms: _193  and  _194
REMARK   87  A    between atoms: _197  and  _199
REMARK   88  A    between atoms: _199  and  _200
REMARK   89  A    between atoms: _199  and  _202
REMARK   90  A    between atoms: _202  and  _203
REMARK   91  A    between atoms: _206  and  _208
REMARK   92  A    between atoms: _208  and  _209
REMARK   93  A    between atoms: _208  and  _211
REMARK   94  A    between atoms: _211  and  _212
REMARK   95  A    between atoms: _215  and  _217
REMARK   96  A    between atoms: _217  and  _218
REMARK   97  A    between atoms: _217  and  _220
REMARK   98  A    between atoms: _220  and  _221
REMARK   99  A    between atoms: _224  and  _226
REMARK  100  A    between atoms: _226  and  _227
REMARK  101  A    between atoms: _229  and  _231
REMARK  102  A    between atoms: _231  and  _232
REMARK  103  A    between atoms: _231  and  _234
REMARK  104  A    between atoms: _234  and  _235
REMARK  105  A    between atoms: _235  and  _236
REMARK  106  A    between atoms: _236  and  _237
REMARK  107  A    between atoms: _237  and  _238
REMARK  108  A    between atoms: _242  and  _244
REMARK  109  A    between atoms: _244  and  _245
REMARK  110  A    between atoms: _244  and  _247
REMARK  111  A    between atoms: _247  and  _248
REMARK  112  A    between atoms: _251  and  _253
REMARK  113  A    between atoms: _253  and  _254
REMARK  114  A    between atoms: _253  and  _256
REMARK  115  A    between atoms: _256  and  _257
REMARK  116  A    between atoms: _257  and  _258
REMARK  117  A    between atoms: _260  and  _262
REMARK  118  A    between atoms: _262  and  _263
REMARK  119  A    between atoms: _262  and  _265
REMARK  120  A    between atoms: _265  and  _266
REMARK  121  A    between atoms: _266  and  _267
REMARK  122  A    between atoms: _272  and  _274
REMARK  123  A    between atoms: _274  and  _275
REMARK  124  A    between atoms: _274  and  _277
REMARK  125  A    between atoms: _277  and  _278
REMARK  126  A    between atoms: _281  and  _283
REMARK  127  A    between atoms: _283  and  _284
REMARK  128  A    between atoms: _283  and  _286
REMARK  129  A    between atoms: _286  and  _287
REMARK  130  A    between atoms: _290  and  _292
REMARK  131  A    between atoms: _292  and  _293
REMARK  132  A    between atoms: _292  and  _295
REMARK  133  A    between atoms: _295  and  _296
REMARK  134  A    between atoms: _298  and  _300
REMARK  135  A    between atoms: _300  and  _301
REMARK  136  A    between atoms: _300  and  _303
REMARK  137  A    between atoms: _303  and  _304
REMARK  138  A    between atoms: _307  and  _309
REMARK  139  A    between atoms: _309  and  _310
REMARK  140  A    between atoms: _309  and  _312
REMARK  141  A    between atoms: _312  and  _313
REMARK  142  A    between atoms: _313  and  _314
REMARK  143  A    between atoms: _314  and  _315
REMARK  144  A    between atoms: _315  and  _316
REMARK  145  A    between atoms: _320  and  _322
REMARK  146  A    between atoms: _322  and  _323
REMARK  147  A    between atoms: _322  and  _325
REMARK  148  A    between atoms: _325  and  _326
REMARK  149  A    between atoms: _329  and  _331
REMARK  150  A    between atoms: _331  and  _332
REMARK  151  A    between atoms: _331  and  _334
REMARK  152  A    between atoms: _334  and  _335
REMARK  153  A    between atoms: _335  and  _336
REMARK  154  A    between atoms: _336  and  _337
REMARK  155  A    between atoms: _346  and  _348
REMARK  156  A    between atoms: _348  and  _349
REMARK  157  A    between atoms: _348  and  _351
REMARK  158  A    between atoms: _351  and  _352
REMARK  159  A    between atoms: _354  and  _356
REMARK  160  A    between atoms: _356  and  _357
REMARK  161  A    between atoms: _356  and  _359
REMARK  162  A    between atoms: _362  and  _364
REMARK  163  A    between atoms: _364  and  _365
REMARK  164  A    between atoms: _364  and  _367
REMARK  165  A    between atoms: _367  and  _368
REMARK  166  A    between atoms: _373  and  _374
REMARK  167  A    between atoms: _376  and  _378
REMARK  168  A    between atoms: _378  and  _379
REMARK  169  A    between atoms: _378  and  _381
REMARK  170  A    between atoms: _381  and  _382
REMARK  171  A    between atoms: _386  and  _387
REMARK  172  A    between atoms: _392  and  _394
REMARK  173  A    between atoms: _394  and  _395
REMARK  174  A    between atoms: _394  and  _397
REMARK  175  A    between atoms: _397  and  _398
REMARK  176  A    between atoms: _401  and  _403
REMARK  177  A    between atoms: _403  and  _404
REMARK  178  A    between atoms: _403  and  _406
REMARK  179  A    between atoms: _406  and  _407
REMARK  180  A    between atoms: _407  and  _408
REMARK  181  A    between atoms: _408  and  _409
REMARK  182  A    between atoms: _409  and  _410
REMARK  183  A    between atoms: _414  and  _416
REMARK  184  A    between atoms: _416  and  _417
REMARK  185  A    between atoms: _416  and  _419
REMARK  186  A    between atoms: _419  and  _420
REMARK  187  A    between atoms: _426  and  _428
REMARK  188  A    between atoms: _428  and  _429
REMARK  189  A    between atoms: _428  and  _431
REMARK  190  A    between atoms: _434  and  _436
REMARK  191  A    between atoms: _436  and  _437
REMARK  192  A    between atoms: _436  and  _439
REMARK  193  A    between atoms: _442  and  _444
REMARK  194  A    between atoms: _444  and  _445
REMARK  195  A    between atoms: _447  and  _449
REMARK  196  A    between atoms: _449  and  _450
REMARK  197  A    between atoms: _449  and  _452
REMARK  198  A    between atoms: _452  and  _453
REMARK  199  A    between atoms: _458  and  _459
REMARK  200  A    between atoms: _461  and  _463
REMARK  201  A    between atoms: _463  and  _464
REMARK  202  A    between atoms: _467  and  _469
REMARK  203  A    between atoms: _469  and  _470
REMARK  204  A    between atoms: _469  and  _472
REMARK  205  A    between atoms: _472  and  _473
REMARK  206  A    between atoms: _476  and  _478
REMARK  207  A    between atoms: _478  and  _479
REMARK  208  A    between atoms: _478  and  _481
REMARK  209  A    between atoms: _481  and  _482
REMARK  210  A    between atoms: _482  and  _483
REMARK  211  A    between atoms: _483  and  MG_588
REMARK  212  A    between atoms: _485  and  _487
REMARK  213  A    between atoms: _487  and  _488
REMARK  214  A    between atoms: _487  and  _490
REMARK  215  A    between atoms: _490  and  _491
REMARK  216  A    between atoms: _496  and  _497
REMARK  217  A    between atoms: _499  and  _501
REMARK  218  A    between atoms: _501  and  _502
REMARK  219  A    between atoms: _501  and  _504
REMARK  220  A    between atoms: _504  and  _505
REMARK  221  A    between atoms: _510  and  _512
REMARK  222  A    between atoms: _512  and  _513
REMARK  223  A    between atoms: _512  and  _515
REMARK  224  A    between atoms: _515  and  _516
REMARK  225  A    between atoms: _516  and  _517
REMARK  226  A    between atoms: _520  and  _522
REMARK  227  A    between atoms: _522  and  _523
REMARK  228  A    between atoms: _522  and  _525
REMARK  229  A    between atoms: _525  and  _526
REMARK  230  A    between atoms: _531  and  _532
REMARK  231  A    between atoms: _534  and  _536
REMARK  232  A    between atoms: _536  and  _537
REMARK  233  A    between atoms: _536  and  _539
REMARK  234  A    between atoms: _539  and  _540
REMARK  235  A    between atoms: _546  and  _548
REMARK  236  A    between atoms: _548  and  _549
REMARK  237  A    between atoms: _548  and  _551
REMARK  238  A    between atoms: _551  and  _552
REMARK  239  A    between atoms: _552  and  _553
REMARK  240  A    between atoms: _553  and  _554
REMARK  241  A    between atoms: _563  and  _565
REMARK  242  A    between atoms: _565  and  _566
REMARK  243  A    between atoms: _565  and  _568
REMARK  244  A    between atoms: _571  and  _573
REMARK  245  A    between atoms: _573  and  _574
REMARK  246  A    between atoms: _573  and  _576
REMARK  247  A    between atoms: _578  and  _580
REMARK  248  A    between atoms: _580  and  _581
REMARK  249  A    between atoms: _580  and  _583
REMARK  250  A    between atoms: _583  and  _584
REMARK                            x       y       z     vdW  Elec       q    Type
REMARK                         _______ _______ _______ _____ _____    ______ ____
ROOT
ATOM      1  CA  LEU A  11       3.610  88.265  48.227  0.00  0.00    +0.000 C 
ENDROOT
BRANCH   1   3
ATOM      2  C   ALA A  10       3.145  90.657  48.406  0.00  0.00    +0.000 C 
ATOM      3  N   LEU A  11       3.397  89.490  49.006  0.00  0.00    +0.000 N 
ATOM      4  H   LEU A  11       3.443  89.449  50.044  0.00  0.00    +0.000 HD
ATOM      5  O   ALA A  10       3.099  90.788  47.173  0.00  0.00    +0.000 OA
BRANCH   2   6
ATOM      6  CA  ALA A  10       2.914  91.868  49.309  0.00  0.00    +0.000 C 
ATOM      7  CB  ALA A  10       4.083  92.851  49.176  0.00  0.00    +0.000 C 
BRANCH   6  10
ATOM      8  C   TYR A   9       3.632  91.285  51.615  0.00  0.00    +0.000 C 
ATOM      9  O   TYR A   9       4.837  91.293  51.349  0.00  0.00    +0.000 OA
ATOM     10  N   ALA A  10       2.675  91.532  50.715  0.00  0.00    +0.000 N 
ATOM     11  H   ALA A  10       1.687  91.482  51.037  0.00  0.00    +0.000 HD
BRANCH   8  12
ATOM     12  CA  TYR A   9       3.134  90.966  53.039  0.00  0.00    +0.000 C 
BRANCH  12  14
ATOM     13  C   GLY A   8       2.231  88.827  52.328  0.00  0.00    +0.000 C 
ATOM     14  N   TYR A   9       2.062  89.982  52.966  0.00  0.00    +0.000 N 
ATOM     15  H   TYR A   9       1.149  90.186  53.420  0.00  0.00    +0.000 HD
ATOM     16  O   GLY A   8       3.294  88.512  51.777  0.00  0.00    +0.000 OA
BRANCH  13  17
ATOM     17  CA  GLY A   8       1.033  87.893  52.315  0.00  0.00    +0.000 C 
BRANCH  17  20
ATOM     18  C   VAL A   7       1.518  85.612  51.678  0.00  0.00    +0.000 C 
ATOM     19  O   VAL A   7       1.821  85.306  52.833  0.00  0.00    +0.000 OA
ATOM     20  N   GLY A   8       1.129  86.834  51.328  0.00  0.00    +0.000 N 
ATOM     21  H   GLY A   8       0.891  87.033  50.335  0.00  0.00    +0.000 HD
BRANCH  18  22
ATOM     22  CA  VAL A   7       1.586  84.572  50.559  0.00  0.00    +0.000 C 
BRANCH  22  24
ATOM     23  C   VAL A   6       3.205  82.753  50.358  0.00  0.00    +0.000 C 
ATOM     24  N   VAL A   7       2.290  83.403  51.067  0.00  0.00    +0.000 N 
ATOM     25  H   VAL A   7       2.067  83.063  52.024  0.00  0.00    +0.000 HD
ATOM     26  O   VAL A   6       3.524  83.076  49.218  0.00  0.00    +0.000 OA
BRANCH  23  27
ATOM     27  CA  VAL A   6       3.851  81.557  51.053  0.00  0.00    +0.000 C 
BRANCH  27  29
ATOM     28  C   PHE A   5       3.627  79.671  49.519  0.00  0.00    +0.000 C 
ATOM     29  N   VAL A   6       4.385  80.582  50.121  0.00  0.00    +0.000 N 
ATOM     30  H   VAL A   6       5.404  80.596  49.915  0.00  0.00    +0.000 HD
ATOM     31  O   PHE A   5       2.412  79.580  49.689  0.00  0.00    +0.000 OA
BRANCH  28  32
ATOM     32  CA  PHE A   5       4.365  78.727  48.579  0.00  0.00    +0.000 C 
BRANCH  32  35
ATOM     33  C   LYS A   4       5.872  77.417  49.942  0.00  0.00    +0.000 C 
ATOM     34  O   LYS A   4       6.699  78.335  49.976  0.00  0.00    +0.000 OA
ATOM     35  N   PHE A   5       4.723  77.502  49.283  0.00  0.00    +0.000 N 
ATOM     36  H   PHE A   5       4.074  76.689  49.269  0.00  0.00    +0.000 HD
BRANCH  33  37
ATOM     37  CA  LYS A   4       6.149  76.107  50.661  0.00  0.00    +0.000 C 
BRANCH  37  39
ATOM     38  C   ASP A   3       8.069  74.661  50.282  0.00  0.00    +0.000 C 
ATOM     39  N   LYS A   4       7.580  75.855  50.607  0.00  0.00    +0.000 N 
ATOM     40  H   LYS A   4       8.239  76.629  50.828  0.00  0.00    +0.000 HD
ATOM     41  O   ASP A   3       7.359  73.685  50.016  0.00  0.00    +0.000 OA
BRANCH  38  42
ATOM     42  CA  ASP A   3       9.583  74.554  50.255  0.00  0.00    +0.000 C 
BRANCH  42  45
ATOM     43  C   PRO A   2      10.224  75.585  52.358  0.00  0.00    +0.000 C 
ATOM     44  O   PRO A   2       9.802  76.680  51.992  0.00  0.00    +0.000 OA
ATOM     45  N   ASP A   3      10.153  74.499  51.595  0.00  0.00    +0.000 N 
ATOM     46  H   ASP A   3      10.511  73.594  51.961  0.00  0.00    +0.000 HD
BRANCH  43  52
ATOM     47  C   ILE A   1      11.873  77.646  53.989  0.00  0.00    +0.000 C 
ATOM     48  N   PRO A   2      10.962  76.740  54.377  0.00  0.00    +0.000 N 
ATOM     49  CD  PRO A   2       9.999  76.902  55.484  0.00  0.00    +0.000 C 
ATOM     50  CG  PRO A   2       9.747  75.490  55.918  0.00  0.00    +0.000 C 
ATOM     51  CB  PRO A   2       9.937  74.626  54.687  0.00  0.00    +0.000 C 
ATOM     52  CA  PRO A   2      10.853  75.419  53.746  0.00  0.00    +0.000 C 
ATOM     53  O   ILE A   1      12.696  77.408  53.109  0.00  0.00    +0.000 OA
BRANCH  47  54
ATOM     54  CA  ILE A   1      11.868  78.985  54.717  0.00  0.00    +0.000 C 
BRANCH  54  55
ATOM     55  CB  ILE A   1      10.598  79.773  54.268  0.00  0.00    +0.000 C 
ATOM     56  CG2 ILE A   1      10.532  81.121  54.981  0.00  0.00    +0.000 C 
BRANCH  55  57
ATOM     57  CG1 ILE A   1      10.627  80.005  52.750  0.00  0.00    +0.000 C 
ATOM     58  CD1 ILE A   1       9.275  80.372  52.138  0.00  0.00    +0.000 C 
ENDBRANCH  55  57
ENDBRANCH  54  55
BRANCH  54  59
ATOM     59  N   ILE A   1      13.054  79.800  54.518  0.00  0.00    +0.000 NA
ATOM     60  H   ILE A   1      13.234  80.214  53.581  0.00  0.00    +0.000 HD
ENDBRANCH  54  59
ENDBRANCH  47  54
ENDBRANCH  43  52
ENDBRANCH  42  45
BRANCH  42  61
ATOM     61  CB  ASP A   3       9.991  73.323  49.447  0.00  0.00    +0.000 C 
BRANCH  61  62
ATOM     62  CG  ASP A   3       9.725  73.491  47.960  0.00  0.00    +0.000 C 
ATOM     63  OD2 ASP A   3       9.077  74.490  47.579  0.00  0.00    +0.000 OA
ATOM     64  OD1 ASP A   3      10.163  72.625  47.172  0.00  0.00    +0.000 OA
ENDBRANCH  61  62
ENDBRANCH  42  61
ENDBRANCH  38  42
ENDBRANCH  37  39
BRANCH  37  65
ATOM     65  CB  LYS A   4       5.680  76.211  52.118  0.00  0.00    +0.000 C 
BRANCH  65  66
ATOM     66  CG  LYS A   4       5.781  74.914  52.904  0.00  0.00    +0.000 C 
BRANCH  66  67
ATOM     67  CD  LYS A   4       4.683  74.816  53.935  0.00  0.00    +0.000 C 
BRANCH  67  68
ATOM     68  CE  LYS A   4       4.714  73.465  54.640  0.00  0.00    +0.000 C 
BRANCH  68  69
ATOM     69  NZ  LYS A   4       5.591  73.467  55.845  0.00  0.00    +0.000 N 
ATOM     70  HZ1 LYS A   4       5.244  74.174  56.524  0.00  0.00    +0.000 HD
ATOM     71  HZ2 LYS A   4       5.575  72.525  56.285  0.00  0.00    +0.000 HD
ATOM     72  HZ3 LYS A   4       6.564  73.703  55.564  0.00  0.00    +0.000 HD
ENDBRANCH  68  69
ENDBRANCH  67  68
ENDBRANCH  66  67
ENDBRANCH  65  66
ENDBRANCH  37  65
ENDBRANCH  33  37
ENDBRANCH  32  35
BRANCH  32  73
ATOM     73  CB  PHE A   5       3.492  78.432  47.352  0.00  0.00    +0.000 C 
BRANCH  73  74
ATOM     74  CG  PHE A   5       3.452  79.569  46.362  0.00  0.00    +0.000 A 
ATOM     75  CD2 PHE A   5       2.437  80.522  46.416  0.00  0.00    +0.000 A 
ATOM     76  CE2 PHE A   5       2.421  81.598  45.529  0.00  0.00    +0.000 A 
ATOM     77  CZ  PHE A   5       3.428  81.728  44.573  0.00  0.00    +0.000 A 
ATOM     78  CE1 PHE A   5       4.445  80.783  44.509  0.00  0.00    +0.000 A 
ATOM     79  CD1 PHE A   5       4.452  79.708  45.404  0.00  0.00    +0.000 A 
ENDBRANCH  73  74
ENDBRANCH  32  73
ENDBRANCH  28  32
ENDBRANCH  27  29
BRANCH  27  80
ATOM     80  CB  VAL A   6       4.963  82.073  51.990  0.00  0.00    +0.000 C 
ATOM     81  CG2 VAL A   6       5.442  80.950  52.869  0.00  0.00    +0.000 C 
ATOM     82  CG1 VAL A   6       6.134  82.635  51.169  0.00  0.00    +0.000 C 
ENDBRANCH  27  80
ENDBRANCH  23  27
ENDBRANCH  22  24
BRANCH  22  83
ATOM     83  CB  VAL A   7       0.162  84.209  50.139  0.00  0.00    +0.000 C 
ATOM     84  CG2 VAL A   7      -0.563  83.512  51.304  0.00  0.00    +0.000 C 
ATOM     85  CG1 VAL A   7       0.203  83.321  48.905  0.00  0.00    +0.000 C 
ENDBRANCH  22  83
ENDBRANCH  18  22
ENDBRANCH  17  20
ENDBRANCH  13  17
ENDBRANCH  12  14
BRANCH  12  86
ATOM     86  CB  TYR A   9       4.275  90.424  53.919  0.00  0.00    +0.000 C 
BRANCH  86  87
ATOM     87  CG  TYR A   9       5.287  91.467  54.338  0.00  0.00    +0.000 A 
ATOM     88  CD2 TYR A   9       4.926  92.518  55.182  0.00  0.00    +0.000 A 
ATOM     89  CE2 TYR A   9       5.862  93.485  55.568  0.00  0.00    +0.000 A 
ATOM     90  CZ  TYR A   9       7.164  93.396  55.106  0.00  0.00    +0.000 A 
ATOM     91  CE1 TYR A   9       7.546  92.357  54.268  0.00  0.00    +0.000 A 
ATOM     92  CD1 TYR A   9       6.606  91.402  53.889  0.00  0.00    +0.000 A 
BRANCH  90  93
ATOM     93  OH  TYR A   9       8.085  94.353  55.463  0.00  0.00    +0.000 OA
ATOM     94  HH  TYR A   9       7.655  95.017  56.059  0.00  0.00    +0.000 HD
ENDBRANCH  90  93
ENDBRANCH  86  87
ENDBRANCH  12  86
ENDBRANCH   8  12
ENDBRANCH   6  10
ENDBRANCH   2   6
ENDBRANCH   1   3
BRANCH   1  95
ATOM     95  C   LEU A  11       2.221  87.725  47.890  0.00  0.00    +0.000 C 
ATOM     96  O   LEU A  11       1.395  87.479  48.781  0.00  0.00    +0.000 OA
ATOM     97  N   UNK A  12       1.977  87.531  46.597  0.00  0.00    +0.000 N 
ATOM     98  H   UNK A  12       2.741  87.696  45.911  0.00  0.00    +0.000 HD
BRANCH  97  99
ATOM     99  C   UNK A  12       0.674  87.095  46.111  0.00  0.00    +0.000 C 
BRANCH  99 100
ATOM    100  C   UNK A  12       0.576  85.681  45.553  0.00  0.00    +0.000 C 
ATOM    101  O   UNK A  12       1.557  84.946  45.430  0.00  0.00    +0.000 OA
ATOM    102  N   TYR A  13      -0.659  85.347  45.200  0.00  0.00    +0.000 N 
ATOM    103  H   TYR A  13      -1.419  86.028  45.400  0.00  0.00    +0.000 HD
BRANCH 102 104
ATOM    104  CA  TYR A  13      -1.024  84.103  44.556  0.00  0.00    +0.000 C 
BRANCH 104 105
ATOM    105  C   TYR A  13      -2.018  84.623  43.522  0.00  0.00    +0.000 C 
ATOM    106  O   TYR A  13      -3.179  84.890  43.842  0.00  0.00    +0.000 OA
ATOM    107  N   ASN A  14      -1.545  84.814  42.294  0.00  0.00    +0.000 N 
ATOM    108  H   ASN A  14      -0.550  84.590  42.091  0.00  0.00    +0.000 HD
BRANCH 107 109
ATOM    109  CA  ASN A  14      -2.391  85.331  41.226  0.00  0.00    +0.000 C 
BRANCH 109 110
ATOM    110  C   ASN A  14      -2.995  86.672  41.621  0.00  0.00    +0.000 C 
ATOM    111  N   GLU A  15      -2.148  87.553  42.157  0.00  0.00    +0.000 N 
ATOM    112  H   GLU A  15      -1.156  87.265  42.276  0.00  0.00    +0.000 HD
ATOM    113  O   ASN A  14      -4.193  86.897  41.441  0.00  0.00    +0.000 OA
BRANCH 111 114
ATOM    114  CA  GLU A  15      -2.527  88.901  42.589  0.00  0.00    +0.000 C 
BRANCH 114 115
ATOM    115  C   GLU A  15      -3.293  88.990  43.912  0.00  0.00    +0.000 C 
ATOM    116  N   TYR A  16      -3.712  87.851  44.455  0.00  0.00    +0.000 N 
ATOM    117  H   TYR A  16      -3.529  86.950  43.969  0.00  0.00    +0.000 HD
ATOM    118  O   GLU A  15      -3.500  90.086  44.438  0.00  0.00    +0.000 OA
BRANCH 116 119
ATOM    119  CA  TYR A  16      -4.425  87.854  45.724  0.00  0.00    +0.000 C 
BRANCH 119 120
ATOM    120  C   TYR A  16      -3.450  87.700  46.887  0.00  0.00    +0.000 C 
ATOM    121  N   PHE A  17      -3.887  88.103  48.084  0.00  0.00    +0.000 N 
ATOM    122  H   PHE A  17      -4.846  88.501  48.148  0.00  0.00    +0.000 HD
ATOM    123  O   TYR A  16      -2.326  87.236  46.696  0.00  0.00    +0.000 OA
BRANCH 121 124
ATOM    124  CA  PHE A  17      -3.090  88.015  49.314  0.00  0.00    +0.000 C 
BRANCH 124 125
ATOM    125  C   PHE A  17      -2.010  89.078  49.518  0.00  0.00    +0.000 C 
ATOM    126  O   PHE A  17      -1.237  89.000  50.479  0.00  0.00    +0.000 OA
ATOM    127  N   ARG A  18      -1.928  90.055  48.622  0.00  0.00    +0.000 N 
ATOM    128  H   ARG A  18      -2.563  90.063  47.798  0.00  0.00    +0.000 HD
BRANCH 127 129
ATOM    129  CA  ARG A  18      -0.941  91.119  48.800  0.00  0.00    +0.000 C 
BRANCH 129 130
ATOM    130  C   ARG A  18      -1.388  92.004  49.968  0.00  0.00    +0.000 C 
ATOM    131  O   ARG A  18      -0.575  92.475  50.764  0.00  0.00    +0.000 OA
ENDBRANCH 129 130
BRANCH 129 132
ATOM    132  CB  ARG A  18      -0.837  91.962  47.534  0.00  0.00    +0.000 C 
BRANCH 132 133
ATOM    133  CG  ARG A  18      -0.344  91.191  46.330  0.00  0.00    +0.000 C 
BRANCH 133 134
ATOM    134  CD  ARG A  18       0.580  92.053  45.493  0.00  0.00    +0.000 C 
BRANCH 134 135
ATOM    135  NE  ARG A  18       0.694  91.549  44.132  0.00  0.00    +0.330 N 
ATOM    136  CZ  ARG A  18       1.744  90.875  43.681  0.00  0.00    +0.000 C 
ATOM    137  NH2 ARG A  18       2.774  90.623  44.486  0.00  0.00    +0.330 N 
ATOM    138 HH21 ARG A  18       2.757  90.955  45.472  0.00  0.00    +0.000 HD
ATOM    139 HH22 ARG A  18       3.596  90.094  44.129  0.00  0.00    +0.000 HD
ATOM    140  NH1 ARG A  18       1.754  90.438  42.425  0.00  0.00    +0.330 N 
ATOM    141 HH11 ARG A  18       2.574  89.909  42.065  0.00  0.00    +0.000 HD
ATOM    142 HH12 ARG A  18       0.942  90.625  41.803  0.00  0.00    +0.000 HD
ATOM    143  HE  ARG A  18      -0.093  91.728  43.476  0.00  0.00    +0.000 HD
ENDBRANCH 134 135
ENDBRANCH 133 134
ENDBRANCH 132 133
ENDBRANCH 129 132
ENDBRANCH 127 129
ENDBRANCH 124 125
BRANCH 124 144
ATOM    144  CB  PHE A  17      -2.444  86.630  49.450  0.00  0.00    +0.000 C 
BRANCH 144 145
ATOM    145  CG  PHE A  17      -3.427  85.511  49.514  0.00  0.00    +0.000 A 
ATOM    146  CD2 PHE A  17      -4.441  85.520  50.471  0.00  0.00    +0.000 A 
ATOM    147  CE2 PHE A  17      -5.380  84.496  50.521  0.00  0.00    +0.000 A 
ATOM    148  CZ  PHE A  17      -5.309  83.452  49.599  0.00  0.00    +0.000 A 
ATOM    149  CE1 PHE A  17      -4.298  83.437  48.643  0.00  0.00    +0.000 A 
ATOM    150  CD1 PHE A  17      -3.364  84.463  48.605  0.00  0.00    +0.000 A 
ENDBRANCH 144 145
ENDBRANCH 124 144
ENDBRANCH 121 124
ENDBRANCH 119 120
BRANCH 119 151
ATOM    151  CB  TYR A  16      -5.453  86.725  45.752  0.00  0.00    +0.000 C 
BRANCH 151 152
ATOM    152  CG  TYR A  16      -6.660  87.022  44.897  0.00  0.00    +0.000 A 
ATOM    153  CD2 TYR A  16      -7.670  87.868  45.360  0.00  0.00    +0.000 A 
ATOM    154  CE2 TYR A  16      -8.760  88.201  44.559  0.00  0.00    +0.000 A 
ATOM    155  CZ  TYR A  16      -8.848  87.683  43.279  0.00  0.00    +0.000 A 
ATOM    156  CE1 TYR A  16      -7.859  86.831  42.790  0.00  0.00    +0.000 A 
ATOM    157  CD1 TYR A  16      -6.769  86.505  43.604  0.00  0.00    +0.000 A 
BRANCH 155 158
ATOM    158  OH  TYR A  16      -9.919  88.029  42.487  0.00  0.00    +0.000 OA
ATOM    159  HH  TYR A  16      -9.837  87.580  41.608  0.00  0.00    +0.000 HD
ENDBRANCH 155 158
ENDBRANCH 151 152
ENDBRANCH 119 151
ENDBRANCH 116 119
ENDBRANCH 114 115
BRANCH 114 160
ATOM    160  CB  GLU A  15      -3.324  89.609  41.489  0.00  0.00    +0.000 C 
BRANCH 160 161
ATOM    161  CG  GLU A  15      -2.545  89.790  40.184  0.00  0.00    +0.000 C 
BRANCH 161 162
ATOM    162  CD  GLU A  15      -1.196  90.434  40.395  0.00  0.00    +0.000 C 
ATOM    163  OE2 GLU A  15      -1.085  91.305  41.285  0.00  0.00    +0.000 OA
ATOM    164  OE1 GLU A  15      -0.241  90.071  39.674  0.00  0.00    +0.000 OA
ENDBRANCH 161 162
ENDBRANCH 160 161
ENDBRANCH 114 160
ENDBRANCH 111 114
ENDBRANCH 109 110
BRANCH 109 165
ATOM    165  CB  ASN A  14      -3.514  84.347  40.898  0.00  0.00    +0.000 C 
BRANCH 165 166
ATOM    166  CG  ASN A  14      -2.993  83.026  40.377  0.00  0.00    +0.000 C 
ATOM    167  ND2 ASN A  14      -3.603  81.939  40.826  0.00  0.00    +0.000 N 
ATOM    168 HD21 ASN A  14      -4.394  82.026  41.495  0.00  0.00    +0.000 HD
ATOM    169 HD22 ASN A  14      -3.290  80.999  40.509  0.00  0.00    +0.000 HD
ATOM    170  OD1 ASN A  14      -2.049  82.979  39.582  0.00  0.00    +0.000 OA
ENDBRANCH 165 166
ENDBRANCH 109 165
ENDBRANCH 107 109
ENDBRANCH 104 105
BRANCH 104 171
ATOM    171  CB  TYR A  13      -1.724  83.150  45.516  0.00  0.00    +0.000 C 
BRANCH 171 172
ATOM    172  CG  TYR A  13      -2.218  81.893  44.843  0.00  0.00    +0.000 A 
ATOM    173  CD2 TYR A  13      -3.575  81.710  44.586  0.00  0.00    +0.000 A 
ATOM    174  CE2 TYR A  13      -4.042  80.551  43.954  0.00  0.00    +0.000 A 
ATOM    175  CZ  TYR A  13      -3.143  79.563  43.577  0.00  0.00    +0.000 A 
ATOM    176  CE1 TYR A  13      -1.783  79.721  43.820  0.00  0.00    +0.000 A 
ATOM    177  CD1 TYR A  13      -1.327  80.886  44.453  0.00  0.00    +0.000 A 
BRANCH 175 178
ATOM    178  OH  TYR A  13      -3.604  78.415  42.971  0.00  0.00    +0.000 OA
ATOM    179  HH  TYR A  13      -4.232  77.951  43.580  0.00  0.00    +0.000 HD
ENDBRANCH 175 178
ENDBRANCH 171 172
ENDBRANCH 104 171
ENDBRANCH 102 104
ENDBRANCH  99 100
BRANCH  99 180
ATOM    180  C   UNK A  12       0.220  88.030  44.988  0.00  0.00    +0.000 C 
BRANCH 180 181
ATOM    181  C   UNK A  12       0.927  87.717  43.675  0.00  0.00    +0.000 C 
ATOM    182  O   UNK A  12       0.269  87.569  42.623  0.00  0.00    +0.000 OA
BRANCH 181 183
ATOM    183  O   UNK A  12       2.168  87.597  43.712  0.00  0.00    +0.000 OA
BRANCH 183 184
ATOM    184 MG   UNK A  12       3.853  86.963  42.557  0.00  0.00    +0.000 Mg
ATOM    185  O   UNK A  12       3.431  85.006  43.170  0.00  0.00    +0.000 OA
ENDBRANCH 183 184
ENDBRANCH 181 183
ENDBRANCH 180 181
ENDBRANCH  99 180
ENDBRANCH  97  99
ENDBRANCH   1  95
BRANCH   1 186
ATOM    186  CB  LEU A  11       4.412  87.227  49.031  0.00  0.00    +0.000 C 
BRANCH 186 187
ATOM    187  CG  LEU A  11       5.936  87.401  49.123  0.00  0.00    +0.000 C 
ATOM    188  CD2 LEU A  11       6.264  88.290  50.308  0.00  0.00    +0.000 C 
ATOM    189  CD1 LEU A  11       6.619  86.044  49.295  0.00  0.00    +0.000 C 
ENDBRANCH 186 187
ENDBRANCH   1 186
TORSDOF 74
REMARK  Name = ../refined-set-2016/1bzy/1bzy_pocket.pdb
REMARK  250 active torsions:
REMARK  status: ('A' for Active; 'I' for Inactive)
REMARK    1  A    between atoms: _1  and  _3
REMARK    2  A    between atoms: _3  and  _4
REMARK    3  A    between atoms: _3  and  _6
REMARK    4  A    between atoms: _9  and  _11
REMARK    5  A    between atoms: _11  and  _12
REMARK    6  A    between atoms: _11  and  _14
REMARK    7  A    between atoms: _14  and  _15
REMARK    8  A    between atoms: _18  and  _20
REMARK    9  A    between atoms: _20  and  _21
REMARK   10  A    between atoms: _20  and  _23
REMARK   11  A    between atoms: _23  and  _24
REMARK   12  A    between atoms: _24  and  _25
REMARK   13  A    between atoms: _25  and  _26
REMARK   14  A    between atoms: _26  and  _27
REMARK   15  A    between atoms: _31  and  _33
REMARK   16  A    between atoms: _33  and  _34
REMARK   17  A    between atoms: _36  and  _38
REMARK   18  A    between atoms: _38  and  _39
REMARK   19  A    between atoms: _41  and  _43
REMARK   20  A    between atoms: _43  and  _44
REMARK   21  A    between atoms: _43  and  _46
REMARK   22  A    between atoms: _46  and  _47
REMARK   23  A    between atoms: _52  and  _53
REMARK   24  A    between atoms: _55  and  _57
REMARK   25  A    between atoms: _57  and  _58
REMARK   26  A    between atoms: _57  and  _60
REMARK   27  A    between atoms: _60  and  _61
REMARK   28  A    between atoms: _64  and  _66
REMARK   29  A    between atoms: _66  and  _67
REMARK   30  A    between atoms: _66  and  _69
REMARK   31  A    between atoms: _69  and  _70
REMARK   32  A    between atoms: _70  and  _71
REMARK   33  A    between atoms: _71  and  _72
REMARK   34  A    between atoms: _72  and  _73
REMARK   35  A    between atoms: _77  and  _79
REMARK   36  A    between atoms: _79  and  _80
REMARK   37  A    between atoms: _79  and  _82
REMARK   38  A    between atoms: _82  and  _83
REMARK   39  A    between atoms: _85  and  _87
REMARK   40  A    between atoms: _87  and  _88
REMARK   41  A    between atoms: _87  and  _90
REMARK   42  A    between atoms: _90  and  _91
REMARK   43  A    between atoms: _96  and  _97
REMARK   44  A    between atoms: _99  and  _101
REMARK   45  A    between atoms: _101  and  _102
REMARK   46  A    between atoms: _101  and  _104
REMARK   47  A    between atoms: _106  and  _108
REMARK   48  A    between atoms: _108  and  _109
REMARK   49  A    between atoms: _108  and  _111
REMARK   50  A    between atoms: _111  and  _112
REMARK   51  A    between atoms: _117  and  _119
REMARK   52  A    between atoms: _119  and  _120
REMARK   53  A    between atoms: _119  and  _122
REMARK   54  A    between atoms: _122  and  _123
REMARK   55  A    between atoms: _126  and  _128
REMARK   56  A    between atoms: _128  and  _129
REMARK   57  A    between atoms: _128  and  _131
REMARK   58  A    between atoms: _131  and  _132
REMARK   59  A    between atoms: _132  and  _133
REMARK   60  A    between atoms: _138  and  _140
REMARK   61  A    between atoms: _140  and  _141
REMARK   62  A    between atoms: _140  and  _143
REMARK   63  A    between atoms: _143  and  _144
REMARK   64  A    between atoms: _146  and  _148
REMARK   65  A    between atoms: _148  and  _149
REMARK   66  A    between atoms: _148  and  _151
REMARK   67  A    between atoms: _151  and  _152
REMARK   68  A    between atoms: _155  and  _157
REMARK   69  A    between atoms: _157  and  _158
REMARK   70  A    between atoms: _160  and  _162
REMARK   71  A    between atoms: _162  and  _163
REMARK   72  A    between atoms: _162  and  _165
REMARK   73  A    between atoms: _165  and  _166
REMARK   74  A    between atoms: _169  and  _171
REMARK   75  A    between atoms: _171  and  _172
REMARK   76  A    between atoms: _171  and  _174
REMARK   77  A    between atoms: _174  and  _175
REMARK   78  A    between atoms: _175  and  _176
REMARK   79  A    between atoms: _179  and  _181
REMARK   80  A    between atoms: _181  and  _182
REMARK   81  A    between atoms: _181  and  _184
REMARK   82  A    between atoms: _184  and  _185
REMARK   83  A    between atoms: _188  and  _190
REMARK   84  A    between atoms: _190  and  _191
REMARK   85  A    between atoms: _190  and  _193
REMARK   86  A    between atoms: _193  and  _194
REMARK   87  A    between atoms: _197  and  _199
REMARK   88  A    between atoms: _199  and  _200
REMARK   89  A    between atoms: _199  and  _202
REMARK   90  A    between atoms: _202  and  _203
REMARK   91  A    between atoms: _206  and  _208
REMARK   92  A    between atoms: _208  and  _209
REMARK   93  A    between atoms: _208  and  _211
REMARK   94  A    between atoms: _211  and  _212
REMARK   95  A    between atoms: _215  and  _217
REMARK   96  A    between atoms: _217  and  _218
REMARK   97  A    between atoms: _217  and  _220
REMARK   98  A    between atoms: _220  and  _221
REMARK   99  A    between atoms: _224  and  _226
REMARK  100  A    between atoms: _226  and  _227
REMARK  101  A    between atoms: _229  and  _231
REMARK  102  A    between atoms: _231  and  _232
REMARK  103  A    between atoms: _231  and  _234
REMARK  104  A    between atoms: _234  and  _235
REMARK  105  A    between atoms: _235  and  _236
REMARK  106  A    between atoms: _236  and  _237
REMARK  107  A    between atoms: _237  and  _238
REMARK  108  A    between atoms: _242  and  _244
REMARK  109  A    between atoms: _244  and  _245
REMARK  110  A    between atoms: _244  and  _247
REMARK  111  A    between atoms: _247  and  _248
REMARK  112  A    between atoms: _251  and  _253
REMARK  113  A    between atoms: _253  and  _254
REMARK  114  A    between atoms: _253  and  _256
REMARK  115  A    between atoms: _256  and  _257
REMARK  116  A    between atoms: _257  and  _258
REMARK  117  A    between atoms: _260  and  _262
REMARK  118  A    between atoms: _262  and  _263
REMARK  119  A    between atoms: _262  and  _265
REMARK  120  A    between atoms: _265  and  _266
REMARK  121  A    between atoms: _266  and  _267
REMARK  122  A    between atoms: _272  and  _274
REMARK  123  A    between atoms: _274  and  _275
REMARK  124  A    between atoms: _274  and  _277
REMARK  125  A    between atoms: _277  and  _278
REMARK  126  A    between atoms: _281  and  _283
REMARK  127  A    between atoms: _283  and  _284
REMARK  128  A    between atoms: _283  and  _286
REMARK  129  A    between atoms: _286  and  _287
REMARK  130  A    between atoms: _290  and  _292
REMARK  131  A    between atoms: _292  and  _293
REMARK  132  A    between atoms: _292  and  _295
REMARK  133  A    between atoms: _295  and  _296
REMARK  134  A    between atoms: _298  and  _300
REMARK  135  A    between atoms: _300  and  _301
REMARK  136  A    between atoms: _300  and  _303
REMARK  137  A    between atoms: _303  and  _304
REMARK  138  A    between atoms: _307  and  _309
REMARK  139  A    between atoms: _309  and  _310
REMARK  140  A    between atoms: _309  and  _312
REMARK  141  A    between atoms: _312  and  _313
REMARK  142  A    between atoms: _313  and  _314
REMARK  143  A    between atoms: _314  and  _315
REMARK  144  A    between atoms: _315  and  _316
REMARK  145  A    between atoms: _320  and  _322
REMARK  146  A    between atoms: _322  and  _323
REMARK  147  A    between atoms: _322  and  _325
REMARK  148  A    between atoms: _325  and  _326
REMARK  149  A    between atoms: _329  and  _331
REMARK  150  A    between atoms: _331  and  _332
REMARK  151  A    between atoms: _331  and  _334
REMARK  152  A    between atoms: _334  and  _335
REMARK  153  A    between atoms: _335  and  _336
REMARK  154  A    between atoms: _336  and  _337
REMARK  155  A    between atoms: _346  and  _348
REMARK  156  A    between atoms: _348  and  _349
REMARK  157  A    between atoms: _348  and  _351
REMARK  158  A    between atoms: _351  and  _352
REMARK  159  A    between atoms: _354  and  _356
REMARK  160  A    between atoms: _356  and  _357
REMARK  161  A    between atoms: _356  and  _359
REMARK  162  A    between atoms: _362  and  _364
REMARK  163  A    between atoms: _364  and  _365
REMARK  164  A    between atoms: _364  and  _367
REMARK  165  A    between atoms: _367  and  _368
REMARK  166  A    between atoms: _373  and  _374
REMARK  167  A    between atoms: _376  and  _378
REMARK  168  A    between atoms: _378  and  _379
REMARK  169  A    between atoms: _378  and  _381
REMARK  170  A    between atoms: _381  and  _382
REMARK  171  A    between atoms: _386  and  _387
REMARK  172  A    between atoms: _392  and  _394
REMARK  173  A    between atoms: _394  and  _395
REMARK  174  A    between atoms: _394  and  _397
REMARK  175  A    between atoms: _397  and  _398
REMARK  176  A    between atoms: _401  and  _403
REMARK  177  A    between atoms: _403  and  _404
REMARK  178  A    between atoms: _403  and  _406
REMARK  179  A    between atoms: _406  and  _407
REMARK  180  A    between atoms: _407  and  _408
REMARK  181  A    between atoms: _408  and  _409
REMARK  182  A    between atoms: _409  and  _410
REMARK  183  A    between atoms: _414  and  _416
REMARK  184  A    between atoms: _416  and  _417
REMARK  185  A    between atoms: _416  and  _419
REMARK  186  A    between atoms: _419  and  _420
REMARK  187  A    between atoms: _426  and  _428
REMARK  188  A    between atoms: _428  and  _429
REMARK  189  A    between atoms: _428  and  _431
REMARK  190  A    between atoms: _434  and  _436
REMARK  191  A    between atoms: _436  and  _437
REMARK  192  A    between atoms: _436  and  _439
REMARK  193  A    between atoms: _442  and  _444
REMARK  194  A    between atoms: _444  and  _445
REMARK  195  A    between atoms: _447  and  _449
REMARK  196  A    between atoms: _449  and  _450
REMARK  197  A    between atoms: _449  and  _452
REMARK  198  A    between atoms: _452  and  _453
REMARK  199  A    between atoms: _458  and  _459
REMARK  200  A    between atoms: _461  and  _463
REMARK  201  A    between atoms: _463  and  _464
REMARK  202  A    between atoms: _467  and  _469
REMARK  203  A    between atoms: _469  and  _470
REMARK  204  A    between atoms: _469  and  _472
REMARK  205  A    between atoms: _472  and  _473
REMARK  206  A    between atoms: _476  and  _478
REMARK  207  A    between atoms: _478  and  _479
REMARK  208  A    between atoms: _478  and  _481
REMARK  209  A    between atoms: _481  and  _482
REMARK  210  A    between atoms: _482  and  _483
REMARK  211  A    between atoms: _483  and  MG_588
REMARK  212  A    between atoms: _485  and  _487
REMARK  213  A    between atoms: _487  and  _488
REMARK  214  A    between atoms: _487  and  _490
REMARK  215  A    between atoms: _490  and  _491
REMARK  216  A    between atoms: _496  and  _497
REMARK  217  A    between atoms: _499  and  _501
REMARK  218  A    between atoms: _501  and  _502
REMARK  219  A    between atoms: _501  and  _504
REMARK  220  A    between atoms: _504  and  _505
REMARK  221  A    between atoms: _510  and  _512
REMARK  222  A    between atoms: _512  and  _513
REMARK  223  A    between atoms: _512  and  _515
REMARK  224  A    between atoms: _515  and  _516
REMARK  225  A    between atoms: _516  and  _517
REMARK  226  A    between atoms: _520  and  _522
REMARK  227  A    between atoms: _522  and  _523
REMARK  228  A    between atoms: _522  and  _525
REMARK  229  A    between atoms: _525  and  _526
REMARK  230  A    between atoms: _531  and  _532
REMARK  231  A    between atoms: _534  and  _536
REMARK  232  A    between atoms: _536  and  _537
REMARK  233  A    between atoms: _536  and  _539
REMARK  234  A    between atoms: _539  and  _540
REMARK  235  A    between atoms: _546  and  _548
REMARK  236  A    between atoms: _548  and  _549
REMARK  237  A    between atoms: _548  and  _551
REMARK  238  A    between atoms: _551  and  _552
REMARK  239  A    between atoms: _552  and  _553
REMARK  240  A    between atoms: _553  and  _554
REMARK  241  A    between atoms: _563  and  _565
REMARK  242  A    between atoms: _565  and  _566
REMARK  243  A    between atoms: _565  and  _568
REMARK  244  A    between atoms: _571  and  _573
REMARK  245  A    between atoms: _573  and  _574
REMARK  246  A    between atoms: _573  and  _576
REMARK  247  A    between atoms: _578  and  _580
REMARK  248  A    between atoms: _580  and  _581
REMARK  249  A    between atoms: _580  and  _583
REMARK  250  A    between atoms: _583  and  _584
REMARK                            x       y       z     vdW  Elec       q    Type
REMARK                         _______ _______ _______ _____ _____    ______ ____
ROOT
ATOM      1  C   VAL A   1       2.484  84.486  56.136  0.00  0.00    +0.238 C 
ATOM      2  O   VAL A   1       2.780  83.966  57.218  0.00  0.00    -0.274 OA
ATOM      3  N   CYS A   2       1.563  83.984  55.320  0.00  0.00    -0.298 N 
ATOM      4  H   CYS A   2       1.363  84.474  54.425  0.00  0.00    +0.150 HD
ENDROOT
BRANCH   1   5
ATOM      5  CA  VAL A   1       3.153  85.787  55.686  0.00  0.00    +0.145 C 
BRANCH   5   6
ATOM      6  CB  VAL A   1       4.678  85.595  55.576  0.00  0.00    +0.025 C 
ATOM      7  CG2 VAL A   1       4.995  84.287  54.850  0.00  0.00    +0.002 C 
ATOM      8  CG1 VAL A   1       5.290  86.773  54.812  0.00  0.00    +0.002 C 
ENDBRANCH   5   6
BRANCH   5   9
ATOM      9  N   VAL A   1       2.797  86.721  56.748  0.00  0.00    -0.238 NA
ATOM     10  H   VAL A   1       3.438  86.855  57.556  0.00  0.00    +0.142 HD
ENDBRANCH   5   9
ENDBRANCH   1   5
BRANCH   3  11
ATOM     11  CA  CYS A   2       0.823  82.766  55.639  0.00  0.00    +0.149 C 
BRANCH  11  12
ATOM     12  CB  CYS A   2      -0.667  83.087  55.803  0.00  0.00    +0.096 C 
ATOM     13  SG  CYS A   2      -1.027  84.509  56.860  0.00  0.00    -0.080 S 
ENDBRANCH  11  12
BRANCH  11  14
ATOM     14  C   CYS A   2       0.952  81.675  54.587  0.00  0.00    +0.228 C 
ATOM     15  O   CYS A   2       1.527  81.875  53.521  0.00  0.00    -0.286 OA
ENDBRANCH  11  14
ENDBRANCH   3  11
TORSDOF 6
REMARK  Name = ../refined-set-2016/1bzy/1bzy_pocket.pdb
REMARK  250 active torsions:
REMARK  status: ('A' for Active; 'I' for Inactive)
REMARK    1  A    between atoms: _1  and  _3
REMARK    2  A    between atoms: _3  and  _4
REMARK    3  A    between atoms: _3  and  _6
REMARK    4  A    between atoms: _9  and  _11
REMARK    5  A    between atoms: _11  and  _12
REMARK    6  A    between atoms: _11  and  _14
REMARK    7  A    between atoms: _14  and  _15
REMARK    8  A    between atoms: _18  and  _20
REMARK    9  A    between atoms: _20  and  _21
REMARK   10  A    between atoms: _20  and  _23
REMARK   11  A    between atoms: _23  and  _24
REMARK   12  A    between atoms: _24  and  _25
REMARK   13  A    between atoms: _25  and  _26
REMARK   14  A    between atoms: _26  and  _27
REMARK   15  A    between atoms: _31  and  _33
REMARK   16  A    between atoms: _33  and  _34
REMARK   17  A    between atoms: _36  and  _38
REMARK   18  A    between atoms: _38  and  _39
REMARK   19  A    between atoms: _41  and  _43
REMARK   20  A    between atoms: _43  and  _44
REMARK   21  A    between atoms: _43  and  _46
REMARK   22  A    between atoms: _46  and  _47
REMARK   23  A    between atoms: _52  and  _53
REMARK   24  A    between atoms: _55  and  _57
REMARK   25  A    between atoms: _57  and  _58
REMARK   26  A    between atoms: _57  and  _60
REMARK   27  A    between atoms: _60  and  _61
REMARK   28  A    between atoms: _64  and  _66
REMARK   29  A    between atoms: _66  and  _67
REMARK   30  A    between atoms: _66  and  _69
REMARK   31  A    between atoms: _69  and  _70
REMARK   32  A    between atoms: _70  and  _71
REMARK   33  A    between atoms: _71  and  _72
REMARK   34  A    between atoms: _72  and  _73
REMARK   35  A    between atoms: _77  and  _79
REMARK   36  A    between atoms: _79  and  _80
REMARK   37  A    between atoms: _79  and  _82
REMARK   38  A    between atoms: _82  and  _83
REMARK   39  A    between atoms: _85  and  _87
REMARK   40  A    between atoms: _87  and  _88
REMARK   41  A    between atoms: _87  and  _90
REMARK   42  A    between atoms: _90  and  _91
REMARK   43  A    between atoms: _96  and  _97
REMARK   44  A    between atoms: _99  and  _101
REMARK   45  A    between atoms: _101  and  _102
REMARK   46  A    between atoms: _101  and  _104
REMARK   47  A    between atoms: _106  and  _108
REMARK   48  A    between atoms: _108  and  _109
REMARK   49  A    between atoms: _108  and  _111
REMARK   50  A    between atoms: _111  and  _112
REMARK   51  A    between atoms: _117  and  _119
REMARK   52  A    between atoms: _119  and  _120
REMARK   53  A    between atoms: _119  and  _122
REMARK   54  A    between atoms: _122  and  _123
REMARK   55  A    between atoms: _126  and  _128
REMARK   56  A    between atoms: _128  and  _129
REMARK   57  A    between atoms: _128  and  _131
REMARK   58  A    between atoms: _131  and  _132
REMARK   59  A    between atoms: _132  and  _133
REMARK   60  A    between atoms: _138  and  _140
REMARK   61  A    between atoms: _140  and  _141
REMARK   62  A    between atoms: _140  and  _143
REMARK   63  A    between atoms: _143  and  _144
REMARK   64  A    between atoms: _146  and  _148
REMARK   65  A    between atoms: _148  and  _149
REMARK   66  A    between atoms: _148  and  _151
REMARK   67  A    between atoms: _151  and  _152
REMARK   68  A    between atoms: _155  and  _157
REMARK   69  A    between atoms: _157  and  _158
REMARK   70  A    between atoms: _160  and  _162
REMARK   71  A    between atoms: _162  and  _163
REMARK   72  A    between atoms: _162  and  _165
REMARK   73  A    between atoms: _165  and  _166
REMARK   74  A    between atoms: _169  and  _171
REMARK   75  A    between atoms: _171  and  _172
REMARK   76  A    between atoms: _171  and  _174
REMARK   77  A    between atoms: _174  and  _175
REMARK   78  A    between atoms: _175  and  _176
REMARK   79  A    between atoms: _179  and  _181
REMARK   80  A    between atoms: _181  and  _182
REMARK   81  A    between atoms: _181  and  _184
REMARK   82  A    between atoms: _184  and  _185
REMARK   83  A    between atoms: _188  and  _190
REMARK   84  A    between atoms: _190  and  _191
REMARK   85  A    between atoms: _190  and  _193
REMARK   86  A    between atoms: _193  and  _194
REMARK   87  A    between atoms: _197  and  _199
REMARK   88  A    between atoms: _199  and  _200
REMARK   89  A    between atoms: _199  and  _202
REMARK   90  A    between atoms: _202  and  _203
REMARK   91  A    between atoms: _206  and  _208
REMARK   92  A    between atoms: _208  and  _209
REMARK   93  A    between atoms: _208  and  _211
REMARK   94  A    between atoms: _211  and  _212
REMARK   95  A    between atoms: _215  and  _217
REMARK   96  A    between atoms: _217  and  _218
REMARK   97  A    between atoms: _217  and  _220
REMARK   98  A    between atoms: _220  and  _221
REMARK   99  A    between atoms: _224  and  _226
REMARK  100  A    between atoms: _226  and  _227
REMARK  101  A    between atoms: _229  and  _231
REMARK  102  A    between atoms: _231  and  _232
REMARK  103  A    between atoms: _231  and  _234
REMARK  104  A    between atoms: _234  and  _235
REMARK  105  A    between atoms: _235  and  _236
REMARK  106  A    between atoms: _236  and  _237
REMARK  107  A    between atoms: _237  and  _238
REMARK  108  A    between atoms: _242  and  _244
REMARK  109  A    between atoms: _244  and  _245
REMARK  110  A    between atoms: _244  and  _247
REMARK  111  A    between atoms: _247  and  _248
REMARK  112  A    between atoms: _251  and  _253
REMARK  113  A    between atoms: _253  and  _254
REMARK  114  A    between atoms: _253  and  _256
REMARK  115  A    between atoms: _256  and  _257
REMARK  116  A    between atoms: _257  and  _258
REMARK  117  A    between atoms: _260  and  _262
REMARK  118  A    between atoms: _262  and  _263
REMARK  119  A    between atoms: _262  and  _265
REMARK  120  A    between atoms: _265  and  _266
REMARK  121  A    between atoms: _266  and  _267
REMARK  122  A    between atoms: _272  and  _274
REMARK  123  A    between atoms: _274  and  _275
REMARK  124  A    between atoms: _274  and  _277
REMARK  125  A    between atoms: _277  and  _278
REMARK  126  A    between atoms: _281  and  _283
REMARK  127  A    between atoms: _283  and  _284
REMARK  128  A    between atoms: _283  and  _286
REMARK  129  A    between atoms: _286  and  _287
REMARK  130  A    between atoms: _290  and  _292
REMARK  131  A    between atoms: _292  and  _293
REMARK  132  A    between atoms: _292  and  _295
REMARK  133  A    between atoms: _295  and  _296
REMARK  134  A    between atoms: _298  and  _300
REMARK  135  A    between atoms: _300  and  _301
REMARK  136  A    between atoms: _300  and  _303
REMARK  137  A    between atoms: _303  and  _304
REMARK  138  A    between atoms: _307  and  _309
REMARK  139  A    between atoms: _309  and  _310
REMARK  140  A    between atoms: _309  and  _312
REMARK  141  A    between atoms: _312  and  _313
REMARK  142  A    between atoms: _313  and  _314
REMARK  143  A    between atoms: _314  and  _315
REMARK  144  A    between atoms: _315  and  _316
REMARK  145  A    between atoms: _320  and  _322
REMARK  146  A    between atoms: _322  and  _323
REMARK  147  A    between atoms: _322  and  _325
REMARK  148  A    between atoms: _325  and  _326
REMARK  149  A    between atoms: _329  and  _331
REMARK  150  A    between atoms: _331  and  _332
REMARK  151  A    between atoms: _331  and  _334
REMARK  152  A    between atoms: _334  and  _335
REMARK  153  A    between atoms: _335  and  _336
REMARK  154  A    between atoms: _336  and  _337
REMARK  155  A    between atoms: _346  and  _348
REMARK  156  A    between atoms: _348  and  _349
REMARK  157  A    between atoms: _348  and  _351
REMARK  158  A    between atoms: _351  and  _352
REMARK  159  A    between atoms: _354  and  _356
REMARK  160  A    between atoms: _356  and  _357
REMARK  161  A    between atoms: _356  and  _359
REMARK  162  A    between atoms: _362  and  _364
REMARK  163  A    between atoms: _364  and  _365
REMARK  164  A    between atoms: _364  and  _367
REMARK  165  A    between atoms: _367  and  _368
REMARK  166  A    between atoms: _373  and  _374
REMARK  167  A    between atoms: _376  and  _378
REMARK  168  A    between atoms: _378  and  _379
REMARK  169  A    between atoms: _378  and  _381
REMARK  170  A    between atoms: _381  and  _382
REMARK  171  A    between atoms: _386  and  _387
REMARK  172  A    between atoms: _392  and  _394
REMARK  173  A    between atoms: _394  and  _395
REMARK  174  A    between atoms: _394  and  _397
REMARK  175  A    between atoms: _397  and  _398
REMARK  176  A    between atoms: _401  and  _403
REMARK  177  A    between atoms: _403  and  _404
REMARK  178  A    between atoms: _403  and  _406
REMARK  179  A    between atoms: _406  and  _407
REMARK  180  A    between atoms: _407  and  _408
REMARK  181  A    between atoms: _408  and  _409
REMARK  182  A    between atoms: _409  and  _410
REMARK  183  A    between atoms: _414  and  _416
REMARK  184  A    between atoms: _416  and  _417
REMARK  185  A    between atoms: _416  and  _419
REMARK  186  A    between atoms: _419  and  _420
REMARK  187  A    between atoms: _426  and  _428
REMARK  188  A    between atoms: _428  and  _429
REMARK  189  A    between atoms: _428  and  _431
REMARK  190  A    between atoms: _434  and  _436
REMARK  191  A    between atoms: _436  and  _437
REMARK  192  A    between atoms: _436  and  _439
REMARK  193  A    between atoms: _442  and  _444
REMARK  194  A    between atoms: _444  and  _445
REMARK  195  A    between atoms: _447  and  _449
REMARK  196  A    between atoms: _449  and  _450
REMARK  197  A    between atoms: _449  and  _452
REMARK  198  A    between atoms: _452  and  _453
REMARK  199  A    between atoms: _458  and  _459
REMARK  200  A    between atoms: _461  and  _463
REMARK  201  A    between atoms: _463  and  _464
REMARK  202  A    between atoms: _467  and  _469
REMARK  203  A    between atoms: _469  and  _470
REMARK  204  A    between atoms: _469  and  _472
REMARK  205  A    between atoms: _472  and  _473
REMARK  206  A    between atoms: _476  and  _478
REMARK  207  A    between atoms: _478  and  _479
REMARK  208  A    between atoms: _478  and  _481
REMARK  209  A    between atoms: _481  and  _482
REMARK  210  A    between atoms: _482  and  _483
REMARK  211  A    between atoms: _483  and  MG_588
REMARK  212  A    between atoms: _485  and  _487
REMARK  213  A    between atoms: _487  and  _488
REMARK  214  A    between atoms: _487  and  _490
REMARK  215  A    between atoms: _490  and  _491
REMARK  216  A    between atoms: _496  and  _497
REMARK  217  A    between atoms: _499  and  _501
REMARK  218  A    between atoms: _501  and  _502
REMARK  219  A    between atoms: _501  and  _504
REMARK  220  A    between atoms: _504  and  _505
REMARK  221  A    between atoms: _510  and  _512
REMARK  222  A    between atoms: _512  and  _513
REMARK  223  A    between atoms: _512  and  _515
REMARK  224  A    between atoms: _515  and  _516
REMARK  225  A    between atoms: _516  and  _517
REMARK  226  A    between atoms: _520  and  _522
REMARK  227  A    between atoms: _522  and  _523
REMARK  228  A    between atoms: _522  and  _525
REMARK  229  A    between atoms: _525  and  _526
REMARK  230  A    between atoms: _531  and  _532
REMARK  231  A    between atoms: _534  and  _536
REMARK  232  A    between atoms: _536  and  _537
REMARK  233  A    between atoms: _536  and  _539
REMARK  234  A    between atoms: _539  and  _540
REMARK  235  A    between atoms: _546  and  _548
REMARK  236  A    between atoms: _548  and  _549
REMARK  237  A    between atoms: _548  and  _551
REMARK  238  A    between atoms: _551  and  _552
REMARK  239  A    between atoms: _552  and  _553
REMARK  240  A    between atoms: _553  and  _554
REMARK  241  A    between atoms: _563  and  _565
REMARK  242  A    between atoms: _565  and  _566
REMARK  243  A    between atoms: _565  and  _568
REMARK  244  A    between atoms: _571  and  _573
REMARK  245  A    between atoms: _573  and  _574
REMARK  246  A    between atoms: _573  and  _576
REMARK  247  A    between atoms: _578  and  _580
REMARK  248  A    between atoms: _580  and  _581
REMARK  249  A    between atoms: _580  and  _583
REMARK  250  A    between atoms: _583  and  _584
REMARK                            x       y       z     vdW  Elec       q    Type
REMARK                         _______ _______ _______ _____ _____    ______ ____
ROOT
ATOM      1  CA  ILE A   1      -2.535  79.014  51.552  0.00  0.00    +0.133 C 
ENDROOT
BRANCH   1   2
ATOM      2  N   ILE A   1      -1.208  79.057  52.165  0.00  0.00    -0.239 NA
ATOM      3  H   ILE A   1      -0.370  78.866  51.579  0.00  0.00    +0.142 HD
ENDBRANCH   1   2
BRANCH   1   4
ATOM      4  C   ILE A   1      -3.314  77.749  51.902  0.00  0.00    +0.224 C 
ATOM      5  O   ILE A   1      -2.729  76.676  52.030  0.00  0.00    -0.287 OA
ENDBRANCH   1   4
BRANCH   1   6
ATOM      6  CB  ILE A   1      -2.438  79.097  49.998  0.00  0.00    +0.023 C 
ATOM      7  CG2 ILE A   1      -3.818  79.286  49.393  0.00  0.00    +0.002 C 
BRANCH   6   8
ATOM      8  CG1 ILE A   1      -1.550  80.264  49.576  0.00  0.00    +0.002 C 
ATOM      9  CD1 ILE A   1      -1.350  80.357  48.080  0.00  0.00    +0.000 C 
ENDBRANCH   6   8
ENDBRANCH   1   6
TORSDOF 4
REMARK  Name = ../refined-set-2016/1bzy/1bzy_pocket.pdb
REMARK  250 active torsions:
REMARK  status: ('A' for Active; 'I' for Inactive)
REMARK    1  A    between atoms: _1  and  _3
REMARK    2  A    between atoms: _3  and  _4
REMARK    3  A    between atoms: _3  and  _6
REMARK    4  A    between atoms: _9  and  _11
REMARK    5  A    between atoms: _11  and  _12
REMARK    6  A    between atoms: _11  and  _14
REMARK    7  A    between atoms: _14  and  _15
REMARK    8  A    between atoms: _18  and  _20
REMARK    9  A    between atoms: _20  and  _21
REMARK   10  A    between atoms: _20  and  _23
REMARK   11  A    between atoms: _23  and  _24
REMARK   12  A    between atoms: _24  and  _25
REMARK   13  A    between atoms: _25  and  _26
REMARK   14  A    between atoms: _26  and  _27
REMARK   15  A    between atoms: _31  and  _33
REMARK   16  A    between atoms: _33  and  _34
REMARK   17  A    between atoms: _36  and  _38
REMARK   18  A    between atoms: _38  and  _39
REMARK   19  A    between atoms: _41  and  _43
REMARK   20  A    between atoms: _43  and  _44
REMARK   21  A    between atoms: _43  and  _46
REMARK   22  A    between atoms: _46  and  _47
REMARK   23  A    between atoms: _52  and  _53
REMARK   24  A    between atoms: _55  and  _57
REMARK   25  A    between atoms: _57  and  _58
REMARK   26  A    between atoms: _57  and  _60
REMARK   27  A    between atoms: _60  and  _61
REMARK   28  A    between atoms: _64  and  _66
REMARK   29  A    between atoms: _66  and  _67
REMARK   30  A    between atoms: _66  and  _69
REMARK   31  A    between atoms: _69  and  _70
REMARK   32  A    between atoms: _70  and  _71
REMARK   33  A    between atoms: _71  and  _72
REMARK   34  A    between atoms: _72  and  _73
REMARK   35  A    between atoms: _77  and  _79
REMARK   36  A    between atoms: _79  and  _80
REMARK   37  A    between atoms: _79  and  _82
REMARK   38  A    between atoms: _82  and  _83
REMARK   39  A    between atoms: _85  and  _87
REMARK   40  A    between atoms: _87  and  _88
REMARK   41  A    between atoms: _87  and  _90
REMARK   42  A    between atoms: _90  and  _91
REMARK   43  A    between atoms: _96  and  _97
REMARK   44  A    between atoms: _99  and  _101
REMARK   45  A    between atoms: _101  and  _102
REMARK   46  A    between atoms: _101  and  _104
REMARK   47  A    between atoms: _106  and  _108
REMARK   48  A    between atoms: _108  and  _109
REMARK   49  A    between atoms: _108  and  _111
REMARK   50  A    between atoms: _111  and  _112
REMARK   51  A    between atoms: _117  and  _119
REMARK   52  A    between atoms: _119  and  _120
REMARK   53  A    between atoms: _119  and  _122
REMARK   54  A    between atoms: _122  and  _123
REMARK   55  A    between atoms: _126  and  _128
REMARK   56  A    between atoms: _128  and  _129
REMARK   57  A    between atoms: _128  and  _131
REMARK   58  A    between atoms: _131  and  _132
REMARK   59  A    between atoms: _132  and  _133
REMARK   60  A    between atoms: _138  and  _140
REMARK   61  A    between atoms: _140  and  _141
REMARK   62  A    between atoms: _140  and  _143
REMARK   63  A    between atoms: _143  and  _144
REMARK   64  A    between atoms: _146  and  _148
REMARK   65  A    between atoms: _148  and  _149
REMARK   66  A    between atoms: _148  and  _151
REMARK   67  A    between atoms: _151  and  _152
REMARK   68  A    between atoms: _155  and  _157
REMARK   69  A    between atoms: _157  and  _158
REMARK   70  A    between atoms: _160  and  _162
REMARK   71  A    between atoms: _162  and  _163
REMARK   72  A    between atoms: _162  and  _165
REMARK   73  A    between atoms: _165  and  _166
REMARK   74  A    between atoms: _169  and  _171
REMARK   75  A    between atoms: _171  and  _172
REMARK   76  A    between atoms: _171  and  _174
REMARK   77  A    between atoms: _174  and  _175
REMARK   78  A    between atoms: _175  and  _176
REMARK   79  A    between atoms: _179  and  _181
REMARK   80  A    between atoms: _181  and  _182
REMARK   81  A    between atoms: _181  and  _184
REMARK   82  A    between atoms: _184  and  _185
REMARK   83  A    between atoms: _188  and  _190
REMARK   84  A    between atoms: _190  and  _191
REMARK   85  A    between atoms: _190  and  _193
REMARK   86  A    between atoms: _193  and  _194
REMARK   87  A    between atoms: _197  and  _199
REMARK   88  A    between atoms: _199  and  _200
REMARK   89  A    between atoms: _199  and  _202
REMARK   90  A    between atoms: _202  and  _203
REMARK   91  A    between atoms: _206  and  _208
REMARK   92  A    between atoms: _208  and  _209
REMARK   93  A    between atoms: _208  and  _211
REMARK   94  A    between atoms: _211  and  _212
REMARK   95  A    between atoms: _215  and  _217
REMARK   96  A    between atoms: _217  and  _218
REMARK   97  A    between atoms: _217  and  _220
REMARK   98  A    between atoms: _220  and  _221
REMARK   99  A    between atoms: _224  and  _226
REMARK  100  A    between atoms: _226  and  _227
REMARK  101  A    between atoms: _229  and  _231
REMARK  102  A    between atoms: _231  and  _232
REMARK  103  A    between atoms: _231  and  _234
REMARK  104  A    between atoms: _234  and  _235
REMARK  105  A    between atoms: _235  and  _236
REMARK  106  A    between atoms: _236  and  _237
REMARK  107  A    between atoms: _237  and  _238
REMARK  108  A    between atoms: _242  and  _244
REMARK  109  A    between atoms: _244  and  _245
REMARK  110  A    between atoms: _244  and  _247
REMARK  111  A    between atoms: _247  and  _248
REMARK  112  A    between atoms: _251  and  _253
REMARK  113  A    between atoms: _253  and  _254
REMARK  114  A    between atoms: _253  and  _256
REMARK  115  A    between atoms: _256  and  _257
REMARK  116  A    between atoms: _257  and  _258
REMARK  117  A    between atoms: _260  and  _262
REMARK  118  A    between atoms: _262  and  _263
REMARK  119  A    between atoms: _262  and  _265
REMARK  120  A    between atoms: _265  and  _266
REMARK  121  A    between atoms: _266  and  _267
REMARK  122  A    between atoms: _272  and  _274
REMARK  123  A    between atoms: _274  and  _275
REMARK  124  A    between atoms: _274  and  _277
REMARK  125  A    between atoms: _277  and  _278
REMARK  126  A    between atoms: _281  and  _283
REMARK  127  A    between atoms: _283  and  _284
REMARK  128  A    between atoms: _283  and  _286
REMARK  129  A    between atoms: _286  and  _287
REMARK  130  A    between atoms: _290  and  _292
REMARK  131  A    between atoms: _292  and  _293
REMARK  132  A    between atoms: _292  and  _295
REMARK  133  A    between atoms: _295  and  _296
REMARK  134  A    between atoms: _298  and  _300
REMARK  135  A    between atoms: _300  and  _301
REMARK  136  A    between atoms: _300  and  _303
REMARK  137  A    between atoms: _303  and  _304
REMARK  138  A    between atoms: _307  and  _309
REMARK  139  A    between atoms: _309  and  _310
REMARK  140  A    between atoms: _309  and  _312
REMARK  141  A    between atoms: _312  and  _313
REMARK  142  A    between atoms: _313  and  _314
REMARK  143  A    between atoms: _314  and  _315
REMARK  144  A    between atoms: _315  and  _316
REMARK  145  A    between atoms: _320  and  _322
REMARK  146  A    between atoms: _322  and  _323
REMARK  147  A    between atoms: _322  and  _325
REMARK  148  A    between atoms: _325  and  _326
REMARK  149  A    between atoms: _329  and  _331
REMARK  150  A    between atoms: _331  and  _332
REMARK  151  A    between atoms: _331  and  _334
REMARK  152  A    between atoms: _334  and  _335
REMARK  153  A    between atoms: _335  and  _336
REMARK  154  A    between atoms: _336  and  _337
REMARK  155  A    between atoms: _346  and  _348
REMARK  156  A    between atoms: _348  and  _349
REMARK  157  A    between atoms: _348  and  _351
REMARK  158  A    between atoms: _351  and  _352
REMARK  159  A    between atoms: _354  and  _356
REMARK  160  A    between atoms: _356  and  _357
REMARK  161  A    between atoms: _356  and  _359
REMARK  162  A    between atoms: _362  and  _364
REMARK  163  A    between atoms: _364  and  _365
REMARK  164  A    between atoms: _364  and  _367
REMARK  165  A    between atoms: _367  and  _368
REMARK  166  A    between atoms: _373  and  _374
REMARK  167  A    between atoms: _376  and  _378
REMARK  168  A    between atoms: _378  and  _379
REMARK  169  A    between atoms: _378  and  _381
REMARK  170  A    between atoms: _381  and  _382
REMARK  171  A    between atoms: _386  and  _387
REMARK  172  A    between atoms: _392  and  _394
REMARK  173  A    between atoms: _394  and  _395
REMARK  174  A    between atoms: _394  and  _397
REMARK  175  A    between atoms: _397  and  _398
REMARK  176  A    between atoms: _401  and  _403
REMARK  177  A    between atoms: _403  and  _404
REMARK  178  A    between atoms: _403  and  _406
REMARK  179  A    between atoms: _406  and  _407
REMARK  180  A    between atoms: _407  and  _408
REMARK  181  A    between atoms: _408  and  _409
REMARK  182  A    between atoms: _409  and  _410
REMARK  183  A    between atoms: _414  and  _416
REMARK  184  A    between atoms: _416  and  _417
REMARK  185  A    between atoms: _416  and  _419
REMARK  186  A    between atoms: _419  and  _420
REMARK  187  A    between atoms: _426  and  _428
REMARK  188  A    between atoms: _428  and  _429
REMARK  189  A    between atoms: _428  and  _431
REMARK  190  A    between atoms: _434  and  _436
REMARK  191  A    between atoms: _436  and  _437
REMARK  192  A    between atoms: _436  and  _439
REMARK  193  A    between atoms: _442  and  _444
REMARK  194  A    between atoms: _444  and  _445
REMARK  195  A    between atoms: _447  and  _449
REMARK  196  A    between atoms: _449  and  _450
REMARK  197  A    between atoms: _449  and  _452
REMARK  198  A    between atoms: _452  and  _453
REMARK  199  A    between atoms: _458  and  _459
REMARK  200  A    between atoms: _461  and  _463
REMARK  201  A    between atoms: _463  and  _464
REMARK  202  A    between atoms: _467  and  _469
REMARK  203  A    between atoms: _469  and  _470
REMARK  204  A    between atoms: _469  and  _472
REMARK  205  A    between atoms: _472  and  _473
REMARK  206  A    between atoms: _476  and  _478
REMARK  207  A    between atoms: _478  and  _479
REMARK  208  A    between atoms: _478  and  _481
REMARK  209  A    between atoms: _481  and  _482
REMARK  210  A    between atoms: _482  and  _483
REMARK  211  A    between atoms: _483  and  MG_588
REMARK  212  A    between atoms: _485  and  _487
REMARK  213  A    between atoms: _487  and  _488
REMARK  214  A    between atoms: _487  and  _490
REMARK  215  A    between atoms: _490  and  _491
REMARK  216  A    between atoms: _496  and  _497
REMARK  217  A    between atoms: _499  and  _501
REMARK  218  A    between atoms: _501  and  _502
REMARK  219  A    between atoms: _501  and  _504
REMARK  220  A    between atoms: _504  and  _505
REMARK  221  A    between atoms: _510  and  _512
REMARK  222  A    between atoms: _512  and  _513
REMARK  223  A    between atoms: _512  and  _515
REMARK  224  A    between atoms: _515  and  _516
REMARK  225  A    between atoms: _516  and  _517
REMARK  226  A    between atoms: _520  and  _522
REMARK  227  A    between atoms: _522  and  _523
REMARK  228  A    between atoms: _522  and  _525
REMARK  229  A    between atoms: _525  and  _526
REMARK  230  A    between atoms: _531  and  _532
REMARK  231  A    between atoms: _534  and  _536
REMARK  232  A    between atoms: _536  and  _537
REMARK  233  A    between atoms: _536  and  _539
REMARK  234  A    between atoms: _539  and  _540
REMARK  235  A    between atoms: _546  and  _548
REMARK  236  A    between atoms: _548  and  _549
REMARK  237  A    between atoms: _548  and  _551
REMARK  238  A    between atoms: _551  and  _552
REMARK  239  A    between atoms: _552  and  _553
REMARK  240  A    between atoms: _553  and  _554
REMARK  241  A    between atoms: _563  and  _565
REMARK  242  A    between atoms: _565  and  _566
REMARK  243  A    between atoms: _565  and  _568
REMARK  244  A    between atoms: _571  and  _573
REMARK  245  A    between atoms: _573  and  _574
REMARK  246  A    between atoms: _573  and  _576
REMARK  247  A    between atoms: _578  and  _580
REMARK  248  A    between atoms: _580  and  _581
REMARK  249  A    between atoms: _580  and  _583
REMARK  250  A    between atoms: _583  and  _584
REMARK                            x       y       z     vdW  Elec       q    Type
REMARK                         _______ _______ _______ _____ _____    ______ ____
ROOT
ATOM      1 MG   UNL     1       8.219  89.186  42.394  0.00  0.00    +0.000 Mg
ATOM      2  O   UNL     1       8.934  90.890  43.620  0.00  0.00    +0.000 OA
ATOM      3  O   UNL     1       8.881  90.249  40.609  0.00  0.00    +0.000 OA
ENDROOT
TORSDOF 0
REMARK  Name = ../refined-set-2016/1bzy/1bzy_pocket.pdb
REMARK  250 active torsions:
REMARK  status: ('A' for Active; 'I' for Inactive)
REMARK    1  A    between atoms: _1  and  _3
REMARK    2  A    between atoms: _3  and  _4
REMARK    3  A    between atoms: _3  and  _6
REMARK    4  A    between atoms: _9  and  _11
REMARK    5  A    between atoms: _11  and  _12
REMARK    6  A    between atoms: _11  and  _14
REMARK    7  A    between atoms: _14  and  _15
REMARK    8  A    between atoms: _18  and  _20
REMARK    9  A    between atoms: _20  and  _21
REMARK   10  A    between atoms: _20  and  _23
REMARK   11  A    between atoms: _23  and  _24
REMARK   12  A    between atoms: _24  and  _25
REMARK   13  A    between atoms: _25  and  _26
REMARK   14  A    between atoms: _26  and  _27
REMARK   15  A    between atoms: _31  and  _33
REMARK   16  A    between atoms: _33  and  _34
REMARK   17  A    between atoms: _36  and  _38
REMARK   18  A    between atoms: _38  and  _39
REMARK   19  A    between atoms: _41  and  _43
REMARK   20  A    between atoms: _43  and  _44
REMARK   21  A    between atoms: _43  and  _46
REMARK   22  A    between atoms: _46  and  _47
REMARK   23  A    between atoms: _52  and  _53
REMARK   24  A    between atoms: _55  and  _57
REMARK   25  A    between atoms: _57  and  _58
REMARK   26  A    between atoms: _57  and  _60
REMARK   27  A    between atoms: _60  and  _61
REMARK   28  A    between atoms: _64  and  _66
REMARK   29  A    between atoms: _66  and  _67
REMARK   30  A    between atoms: _66  and  _69
REMARK   31  A    between atoms: _69  and  _70
REMARK   32  A    between atoms: _70  and  _71
REMARK   33  A    between atoms: _71  and  _72
REMARK   34  A    between atoms: _72  and  _73
REMARK   35  A    between atoms: _77  and  _79
REMARK   36  A    between atoms: _79  and  _80
REMARK   37  A    between atoms: _79  and  _82
REMARK   38  A    between atoms: _82  and  _83
REMARK   39  A    between atoms: _85  and  _87
REMARK   40  A    between atoms: _87  and  _88
REMARK   41  A    between atoms: _87  and  _90
REMARK   42  A    between atoms: _90  and  _91
REMARK   43  A    between atoms: _96  and  _97
REMARK   44  A    between atoms: _99  and  _101
REMARK   45  A    between atoms: _101  and  _102
REMARK   46  A    between atoms: _101  and  _104
REMARK   47  A    between atoms: _106  and  _108
REMARK   48  A    between atoms: _108  and  _109
REMARK   49  A    between atoms: _108  and  _111
REMARK   50  A    between atoms: _111  and  _112
REMARK   51  A    between atoms: _117  and  _119
REMARK   52  A    between atoms: _119  and  _120
REMARK   53  A    between atoms: _119  and  _122
REMARK   54  A    between atoms: _122  and  _123
REMARK   55  A    between atoms: _126  and  _128
REMARK   56  A    between atoms: _128  and  _129
REMARK   57  A    between atoms: _128  and  _131
REMARK   58  A    between atoms: _131  and  _132
REMARK   59  A    between atoms: _132  and  _133
REMARK   60  A    between atoms: _138  and  _140
REMARK   61  A    between atoms: _140  and  _141
REMARK   62  A    between atoms: _140  and  _143
REMARK   63  A    between atoms: _143  and  _144
REMARK   64  A    between atoms: _146  and  _148
REMARK   65  A    between atoms: _148  and  _149
REMARK   66  A    between atoms: _148  and  _151
REMARK   67  A    between atoms: _151  and  _152
REMARK   68  A    between atoms: _155  and  _157
REMARK   69  A    between atoms: _157  and  _158
REMARK   70  A    between atoms: _160  and  _162
REMARK   71  A    between atoms: _162  and  _163
REMARK   72  A    between atoms: _162  and  _165
REMARK   73  A    between atoms: _165  and  _166
REMARK   74  A    between atoms: _169  and  _171
REMARK   75  A    between atoms: _171  and  _172
REMARK   76  A    between atoms: _171  and  _174
REMARK   77  A    between atoms: _174  and  _175
REMARK   78  A    between atoms: _175  and  _176
REMARK   79  A    between atoms: _179  and  _181
REMARK   80  A    between atoms: _181  and  _182
REMARK   81  A    between atoms: _181  and  _184
REMARK   82  A    between atoms: _184  and  _185
REMARK   83  A    between atoms: _188  and  _190
REMARK   84  A    between atoms: _190  and  _191
REMARK   85  A    between atoms: _190  and  _193
REMARK   86  A    between atoms: _193  and  _194
REMARK   87  A    between atoms: _197  and  _199
REMARK   88  A    between atoms: _199  and  _200
REMARK   89  A    between atoms: _199  and  _202
REMARK   90  A    between atoms: _202  and  _203
REMARK   91  A    between atoms: _206  and  _208
REMARK   92  A    between atoms: _208  and  _209
REMARK   93  A    between atoms: _208  and  _211
REMARK   94  A    between atoms: _211  and  _212
REMARK   95  A    between atoms: _215  and  _217
REMARK   96  A    between atoms: _217  and  _218
REMARK   97  A    between atoms: _217  and  _220
REMARK   98  A    between atoms: _220  and  _221
REMARK   99  A    between atoms: _224  and  _226
REMARK  100  A    between atoms: _226  and  _227
REMARK  101  A    between atoms: _229  and  _231
REMARK  102  A    between atoms: _231  and  _232
REMARK  103  A    between atoms: _231  and  _234
REMARK  104  A    between atoms: _234  and  _235
REMARK  105  A    between atoms: _235  and  _236
REMARK  106  A    between atoms: _236  and  _237
REMARK  107  A    between atoms: _237  and  _238
REMARK  108  A    between atoms: _242  and  _244
REMARK  109  A    between atoms: _244  and  _245
REMARK  110  A    between atoms: _244  and  _247
REMARK  111  A    between atoms: _247  and  _248
REMARK  112  A    between atoms: _251  and  _253
REMARK  113  A    between atoms: _253  and  _254
REMARK  114  A    between atoms: _253  and  _256
REMARK  115  A    between atoms: _256  and  _257
REMARK  116  A    between atoms: _257  and  _258
REMARK  117  A    between atoms: _260  and  _262
REMARK  118  A    between atoms: _262  and  _263
REMARK  119  A    between atoms: _262  and  _265
REMARK  120  A    between atoms: _265  and  _266
REMARK  121  A    between atoms: _266  and  _267
REMARK  122  A    between atoms: _272  and  _274
REMARK  123  A    between atoms: _274  and  _275
REMARK  124  A    between atoms: _274  and  _277
REMARK  125  A    between atoms: _277  and  _278
REMARK  126  A    between atoms: _281  and  _283
REMARK  127  A    between atoms: _283  and  _284
REMARK  128  A    between atoms: _283  and  _286
REMARK  129  A    between atoms: _286  and  _287
REMARK  130  A    between atoms: _290  and  _292
REMARK  131  A    between atoms: _292  and  _293
REMARK  132  A    between atoms: _292  and  _295
REMARK  133  A    between atoms: _295  and  _296
REMARK  134  A    between atoms: _298  and  _300
REMARK  135  A    between atoms: _300  and  _301
REMARK  136  A    between atoms: _300  and  _303
REMARK  137  A    between atoms: _303  and  _304
REMARK  138  A    between atoms: _307  and  _309
REMARK  139  A    between atoms: _309  and  _310
REMARK  140  A    between atoms: _309  and  _312
REMARK  141  A    between atoms: _312  and  _313
REMARK  142  A    between atoms: _313  and  _314
REMARK  143  A    between atoms: _314  and  _315
REMARK  144  A    between atoms: _315  and  _316
REMARK  145  A    between atoms: _320  and  _322
REMARK  146  A    between atoms: _322  and  _323
REMARK  147  A    between atoms: _322  and  _325
REMARK  148  A    between atoms: _325  and  _326
REMARK  149  A    between atoms: _329  and  _331
REMARK  150  A    between atoms: _331  and  _332
REMARK  151  A    between atoms: _331  and  _334
REMARK  152  A    between atoms: _334  and  _335
REMARK  153  A    between atoms: _335  and  _336
REMARK  154  A    between atoms: _336  and  _337
REMARK  155  A    between atoms: _346  and  _348
REMARK  156  A    between atoms: _348  and  _349
REMARK  157  A    between atoms: _348  and  _351
REMARK  158  A    between atoms: _351  and  _352
REMARK  159  A    between atoms: _354  and  _356
REMARK  160  A    between atoms: _356  and  _357
REMARK  161  A    between atoms: _356  and  _359
REMARK  162  A    between atoms: _362  and  _364
REMARK  163  A    between atoms: _364  and  _365
REMARK  164  A    between atoms: _364  and  _367
REMARK  165  A    between atoms: _367  and  _368
REMARK  166  A    between atoms: _373  and  _374
REMARK  167  A    between atoms: _376  and  _378
REMARK  168  A    between atoms: _378  and  _379
REMARK  169  A    between atoms: _378  and  _381
REMARK  170  A    between atoms: _381  and  _382
REMARK  171  A    between atoms: _386  and  _387
REMARK  172  A    between atoms: _392  and  _394
REMARK  173  A    between atoms: _394  and  _395
REMARK  174  A    between atoms: _394  and  _397
REMARK  175  A    between atoms: _397  and  _398
REMARK  176  A    between atoms: _401  and  _403
REMARK  177  A    between atoms: _403  and  _404
REMARK  178  A    between atoms: _403  and  _406
REMARK  179  A    between atoms: _406  and  _407
REMARK  180  A    between atoms: _407  and  _408
REMARK  181  A    between atoms: _408  and  _409
REMARK  182  A    between atoms: _409  and  _410
REMARK  183  A    between atoms: _414  and  _416
REMARK  184  A    between atoms: _416  and  _417
REMARK  185  A    between atoms: _416  and  _419
REMARK  186  A    between atoms: _419  and  _420
REMARK  187  A    between atoms: _426  and  _428
REMARK  188  A    between atoms: _428  and  _429
REMARK  189  A    between atoms: _428  and  _431
REMARK  190  A    between atoms: _434  and  _436
REMARK  191  A    between atoms: _436  and  _437
REMARK  192  A    between atoms: _436  and  _439
REMARK  193  A    between atoms: _442  and  _444
REMARK  194  A    between atoms: _444  and  _445
REMARK  195  A    between atoms: _447  and  _449
REMARK  196  A    between atoms: _449  and  _450
REMARK  197  A    between atoms: _449  and  _452
REMARK  198  A    between atoms: _452  and  _453
REMARK  199  A    between atoms: _458  and  _459
REMARK  200  A    between atoms: _461  and  _463
REMARK  201  A    between atoms: _463  and  _464
REMARK  202  A    between atoms: _467  and  _469
REMARK  203  A    between atoms: _469  and  _470
REMARK  204  A    between atoms: _469  and  _472
REMARK  205  A    between atoms: _472  and  _473
REMARK  206  A    between atoms: _476  and  _478
REMARK  207  A    between atoms: _478  and  _479
REMARK  208  A    between atoms: _478  and  _481
REMARK  209  A    between atoms: _481  and  _482
REMARK  210  A    between atoms: _482  and  _483
REMARK  211  A    between atoms: _483  and  MG_588
REMARK  212  A    between atoms: _485  and  _487
REMARK  213  A    between atoms: _487  and  _488
REMARK  214  A    between atoms: _487  and  _490
REMARK  215  A    between atoms: _490  and  _491
REMARK  216  A    between atoms: _496  and  _497
REMARK  217  A    between atoms: _499  and  _501
REMARK  218  A    between atoms: _501  and  _502
REMARK  219  A    between atoms: _501  and  _504
REMARK  220  A    between atoms: _504  and  _505
REMARK  221  A    between atoms: _510  and  _512
REMARK  222  A    between atoms: _512  and  _513
REMARK  223  A    between atoms: _512  and  _515
REMARK  224  A    between atoms: _515  and  _516
REMARK  225  A    between atoms: _516  and  _517
REMARK  226  A    between atoms: _520  and  _522
REMARK  227  A    between atoms: _522  and  _523
REMARK  228  A    between atoms: _522  and  _525
REMARK  229  A    between atoms: _525  and  _526
REMARK  230  A    between atoms: _531  and  _532
REMARK  231  A    between atoms: _534  and  _536
REMARK  232  A    between atoms: _536  and  _537
REMARK  233  A    between atoms: _536  and  _539
REMARK  234  A    between atoms: _539  and  _540
REMARK  235  A    between atoms: _546  and  _548
REMARK  236  A    between atoms: _548  and  _549
REMARK  237  A    between atoms: _548  and  _551
REMARK  238  A    between atoms: _551  and  _552
REMARK  239  A    between atoms: _552  and  _553
REMARK  240  A    between atoms: _553  and  _554
REMARK  241  A    between atoms: _563  and  _565
REMARK  242  A    between atoms: _565  and  _566
REMARK  243  A    between atoms: _565  and  _568
REMARK  244  A    between atoms: _571  and  _573
REMARK  245  A    between atoms: _573  and  _574
REMARK  246  A    between atoms: _573  and  _576
REMARK  247  A    between atoms: _578  and  _580
REMARK  248  A    between atoms: _580  and  _581
REMARK  249  A    between atoms: _580  and  _583
REMARK  250  A    between atoms: _583  and  _584
REMARK                            x       y       z     vdW  Elec       q    Type
REMARK                         _______ _______ _______ _____ _____    ______ ____
ROOT
ATOM      1  O   HOH     1      15.198  85.020  42.017  0.00  0.00    +0.000 OA
ENDROOT
TORSDOF 0
REMARK  Name = ../refined-set-2016/1bzy/1bzy_pocket.pdb
REMARK  250 active torsions:
REMARK  status: ('A' for Active; 'I' for Inactive)
REMARK    1  A    between atoms: _1  and  _3
REMARK    2  A    between atoms: _3  and  _4
REMARK    3  A    between atoms: _3  and  _6
REMARK    4  A    between atoms: _9  and  _11
REMARK    5  A    between atoms: _11  and  _12
REMARK    6  A    between atoms: _11  and  _14
REMARK    7  A    between atoms: _14  and  _15
REMARK    8  A    between atoms: _18  and  _20
REMARK    9  A    between atoms: _20  and  _21
REMARK   10  A    between atoms: _20  and  _23
REMARK   11  A    between atoms: _23  and  _24
REMARK   12  A    between atoms: _24  and  _25
REMARK   13  A    between atoms: _25  and  _26
REMARK   14  A    between atoms: _26  and  _27
REMARK   15  A    between atoms: _31  and  _33
REMARK   16  A    between atoms: _33  and  _34
REMARK   17  A    between atoms: _36  and  _38
REMARK   18  A    between atoms: _38  and  _39
REMARK   19  A    between atoms: _41  and  _43
REMARK   20  A    between atoms: _43  and  _44
REMARK   21  A    between atoms: _43  and  _46
REMARK   22  A    between atoms: _46  and  _47
REMARK   23  A    between atoms: _52  and  _53
REMARK   24  A    between atoms: _55  and  _57
REMARK   25  A    between atoms: _57  and  _58
REMARK   26  A    between atoms: _57  and  _60
REMARK   27  A    between atoms: _60  and  _61
REMARK   28  A    between atoms: _64  and  _66
REMARK   29  A    between atoms: _66  and  _67
REMARK   30  A    between atoms: _66  and  _69
REMARK   31  A    between atoms: _69  and  _70
REMARK   32  A    between atoms: _70  and  _71
REMARK   33  A    between atoms: _71  and  _72
REMARK   34  A    between atoms: _72  and  _73
REMARK   35  A    between atoms: _77  and  _79
REMARK   36  A    between atoms: _79  and  _80
REMARK   37  A    between atoms: _79  and  _82
REMARK   38  A    between atoms: _82  and  _83
REMARK   39  A    between atoms: _85  and  _87
REMARK   40  A    between atoms: _87  and  _88
REMARK   41  A    between atoms: _87  and  _90
REMARK   42  A    between atoms: _90  and  _91
REMARK   43  A    between atoms: _96  and  _97
REMARK   44  A    between atoms: _99  and  _101
REMARK   45  A    between atoms: _101  and  _102
REMARK   46  A    between atoms: _101  and  _104
REMARK   47  A    between atoms: _106  and  _108
REMARK   48  A    between atoms: _108  and  _109
REMARK   49  A    between atoms: _108  and  _111
REMARK   50  A    between atoms: _111  and  _112
REMARK   51  A    between atoms: _117  and  _119
REMARK   52  A    between atoms: _119  and  _120
REMARK   53  A    between atoms: _119  and  _122
REMARK   54  A    between atoms: _122  and  _123
REMARK   55  A    between atoms: _126  and  _128
REMARK   56  A    between atoms: _128  and  _129
REMARK   57  A    between atoms: _128  and  _131
REMARK   58  A    between atoms: _131  and  _132
REMARK   59  A    between atoms: _132  and  _133
REMARK   60  A    between atoms: _138  and  _140
REMARK   61  A    between atoms: _140  and  _141
REMARK   62  A    between atoms: _140  and  _143
REMARK   63  A    between atoms: _143  and  _144
REMARK   64  A    between atoms: _146  and  _148
REMARK   65  A    between atoms: _148  and  _149
REMARK   66  A    between atoms: _148  and  _151
REMARK   67  A    between atoms: _151  and  _152
REMARK   68  A    between atoms: _155  and  _157
REMARK   69  A    between atoms: _157  and  _158
REMARK   70  A    between atoms: _160  and  _162
REMARK   71  A    between atoms: _162  and  _163
REMARK   72  A    between atoms: _162  and  _165
REMARK   73  A    between atoms: _165  and  _166
REMARK   74  A    between atoms: _169  and  _171
REMARK   75  A    between atoms: _171  and  _172
REMARK   76  A    between atoms: _171  and  _174
REMARK   77  A    between atoms: _174  and  _175
REMARK   78  A    between atoms: _175  and  _176
REMARK   79  A    between atoms: _179  and  _181
REMARK   80  A    between atoms: _181  and  _182
REMARK   81  A    between atoms: _181  and  _184
REMARK   82  A    between atoms: _184  and  _185
REMARK   83  A    between atoms: _188  and  _190
REMARK   84  A    between atoms: _190  and  _191
REMARK   85  A    between atoms: _190  and  _193
REMARK   86  A    between atoms: _193  and  _194
REMARK   87  A    between atoms: _197  and  _199
REMARK   88  A    between atoms: _199  and  _200
REMARK   89  A    between atoms: _199  and  _202
REMARK   90  A    between atoms: _202  and  _203
REMARK   91  A    between atoms: _206  and  _208
REMARK   92  A    between atoms: _208  and  _209
REMARK   93  A    between atoms: _208  and  _211
REMARK   94  A    between atoms: _211  and  _212
REMARK   95  A    between atoms: _215  and  _217
REMARK   96  A    between atoms: _217  and  _218
REMARK   97  A    between atoms: _217  and  _220
REMARK   98  A    between atoms: _220  and  _221
REMARK   99  A    between atoms: _224  and  _226
REMARK  100  A    between atoms: _226  and  _227
REMARK  101  A    between atoms: _229  and  _231
REMARK  102  A    between atoms: _231  and  _232
REMARK  103  A    between atoms: _231  and  _234
REMARK  104  A    between atoms: _234  and  _235
REMARK  105  A    between atoms: _235  and  _236
REMARK  106  A    between atoms: _236  and  _237
REMARK  107  A    between atoms: _237  and  _238
REMARK  108  A    between atoms: _242  and  _244
REMARK  109  A    between atoms: _244  and  _245
REMARK  110  A    between atoms: _244  and  _247
REMARK  111  A    between atoms: _247  and  _248
REMARK  112  A    between atoms: _251  and  _253
REMARK  113  A    between atoms: _253  and  _254
REMARK  114  A    between atoms: _253  and  _256
REMARK  115  A    between atoms: _256  and  _257
REMARK  116  A    between atoms: _257  and  _258
REMARK  117  A    between atoms: _260  and  _262
REMARK  118  A    between atoms: _262  and  _263
REMARK  119  A    between atoms: _262  and  _265
REMARK  120  A    between atoms: _265  and  _266
REMARK  121  A    between atoms: _266  and  _267
REMARK  122  A    between atoms: _272  and  _274
REMARK  123  A    between atoms: _274  and  _275
REMARK  124  A    between atoms: _274  and  _277
REMARK  125  A    between atoms: _277  and  _278
REMARK  126  A    between atoms: _281  and  _283
REMARK  127  A    between atoms: _283  and  _284
REMARK  128  A    between atoms: _283  and  _286
REMARK  129  A    between atoms: _286  and  _287
REMARK  130  A    between atoms: _290  and  _292
REMARK  131  A    between atoms: _292  and  _293
REMARK  132  A    between atoms: _292  and  _295
REMARK  133  A    between atoms: _295  and  _296
REMARK  134  A    between atoms: _298  and  _300
REMARK  135  A    between atoms: _300  and  _301
REMARK  136  A    between atoms: _300  and  _303
REMARK  137  A    between atoms: _303  and  _304
REMARK  138  A    between atoms: _307  and  _309
REMARK  139  A    between atoms: _309  and  _310
REMARK  140  A    between atoms: _309  and  _312
REMARK  141  A    between atoms: _312  and  _313
REMARK  142  A    between atoms: _313  and  _314
REMARK  143  A    between atoms: _314  and  _315
REMARK  144  A    between atoms: _315  and  _316
REMARK  145  A    between atoms: _320  and  _322
REMARK  146  A    between atoms: _322  and  _323
REMARK  147  A    between atoms: _322  and  _325
REMARK  148  A    between atoms: _325  and  _326
REMARK  149  A    between atoms: _329  and  _331
REMARK  150  A    between atoms: _331  and  _332
REMARK  151  A    between atoms: _331  and  _334
REMARK  152  A    between atoms: _334  and  _335
REMARK  153  A    between atoms: _335  and  _336
REMARK  154  A    between atoms: _336  and  _337
REMARK  155  A    between atoms: _346  and  _348
REMARK  156  A    between atoms: _348  and  _349
REMARK  157  A    between atoms: _348  and  _351
REMARK  158  A    between atoms: _351  and  _352
REMARK  159  A    between atoms: _354  and  _356
REMARK  160  A    between atoms: _356  and  _357
REMARK  161  A    between atoms: _356  and  _359
REMARK  162  A    between atoms: _362  and  _364
REMARK  163  A    between atoms: _364  and  _365
REMARK  164  A    between atoms: _364  and  _367
REMARK  165  A    between atoms: _367  and  _368
REMARK  166  A    between atoms: _373  and  _374
REMARK  167  A    between atoms: _376  and  _378
REMARK  168  A    between atoms: _378  and  _379
REMARK  169  A    between atoms: _378  and  _381
REMARK  170  A    between atoms: _381  and  _382
REMARK  171  A    between atoms: _386  and  _387
REMARK  172  A    between atoms: _392  and  _394
REMARK  173  A    between atoms: _394  and  _395
REMARK  174  A    between atoms: _394  and  _397
REMARK  175  A    between atoms: _397  and  _398
REMARK  176  A    between atoms: _401  and  _403
REMARK  177  A    between atoms: _403  and  _404
REMARK  178  A    between atoms: _403  and  _406
REMARK  179  A    between atoms: _406  and  _407
REMARK  180  A    between atoms: _407  and  _408
REMARK  181  A    between atoms: _408  and  _409
REMARK  182  A    between atoms: _409  and  _410
REMARK  183  A    between atoms: _414  and  _416
REMARK  184  A    between atoms: _416  and  _417
REMARK  185  A    between atoms: _416  and  _419
REMARK  186  A    between atoms: _419  and  _420
REMARK  187  A    between atoms: _426  and  _428
REMARK  188  A    between atoms: _428  and  _429
REMARK  189  A    between atoms: _428  and  _431
REMARK  190  A    between atoms: _434  and  _436
REMARK  191  A    between atoms: _436  and  _437
REMARK  192  A    between atoms: _436  and  _439
REMARK  193  A    between atoms: _442  and  _444
REMARK  194  A    between atoms: _444  and  _445
REMARK  195  A    between atoms: _447  and  _449
REMARK  196  A    between atoms: _449  and  _450
REMARK  197  A    between atoms: _449  and  _452
REMARK  198  A    between atoms: _452  and  _453
REMARK  199  A    between atoms: _458  and  _459
REMARK  200  A    between atoms: _461  and  _463
REMARK  201  A    between atoms: _463  and  _464
REMARK  202  A    between atoms: _467  and  _469
REMARK  203  A    between atoms: _469  and  _470
REMARK  204  A    between atoms: _469  and  _472
REMARK  205  A    between atoms: _472  and  _473
REMARK  206  A    between atoms: _476  and  _478
REMARK  207  A    between atoms: _478  and  _479
REMARK  208  A    between atoms: _478  and  _481
REMARK  209  A    between atoms: _481  and  _482
REMARK  210  A    between atoms: _482  and  _483
REMARK  211  A    between atoms: _483  and  MG_588
REMARK  212  A    between atoms: _485  and  _487
REMARK  213  A    between atoms: _487  and  _488
REMARK  214  A    between atoms: _487  and  _490
REMARK  215  A    between atoms: _490  and  _491
REMARK  216  A    between atoms: _496  and  _497
REMARK  217  A    between atoms: _499  and  _501
REMARK  218  A    between atoms: _501  and  _502
REMARK  219  A    between atoms: _501  and  _504
REMARK  220  A    between atoms: _504  and  _505
REMARK  221  A    between atoms: _510  and  _512
REMARK  222  A    between atoms: _512  and  _513
REMARK  223  A    between atoms: _512  and  _515
REMARK  224  A    between atoms: _515  and  _516
REMARK  225  A    between atoms: _516  and  _517
REMARK  226  A    between atoms: _520  and  _522
REMARK  227  A    between atoms: _522  and  _523
REMARK  228  A    between atoms: _522  and  _525
REMARK  229  A    between atoms: _525  and  _526
REMARK  230  A    between atoms: _531  and  _532
REMARK  231  A    between atoms: _534  and  _536
REMARK  232  A    between atoms: _536  and  _537
REMARK  233  A    between atoms: _536  and  _539
REMARK  234  A    between atoms: _539  and  _540
REMARK  235  A    between atoms: _546  and  _548
REMARK  236  A    between atoms: _548  and  _549
REMARK  237  A    between atoms: _548  and  _551
REMARK  238  A    between atoms: _551  and  _552
REMARK  239  A    between atoms: _552  and  _553
REMARK  240  A    between atoms: _553  and  _554
REMARK  241  A    between atoms: _563  and  _565
REMARK  242  A    between atoms: _565  and  _566
REMARK  243  A    between atoms: _565  and  _568
REMARK  244  A    between atoms: _571  and  _573
REMARK  245  A    between atoms: _573  and  _574
REMARK  246  A    between atoms: _573  and  _576
REMARK  247  A    between atoms: _578  and  _580
REMARK  248  A    between atoms: _580  and  _581
REMARK  249  A    between atoms: _580  and  _583
REMARK  250  A    between atoms: _583  and  _584
REMARK                            x       y       z     vdW  Elec       q    Type
REMARK                         _______ _______ _______ _____ _____    ______ ____
ROOT
ATOM      1  O   HOH     1       0.835  78.119  50.786  0.00  0.00    +0.000 OA
ENDROOT
TORSDOF 0
REMARK  Name = ../refined-set-2016/1bzy/1bzy_pocket.pdb
REMARK  250 active torsions:
REMARK  status: ('A' for Active; 'I' for Inactive)
REMARK    1  A    between atoms: _1  and  _3
REMARK    2  A    between atoms: _3  and  _4
REMARK    3  A    between atoms: _3  and  _6
REMARK    4  A    between atoms: _9  and  _11
REMARK    5  A    between atoms: _11  and  _12
REMARK    6  A    between atoms: _11  and  _14
REMARK    7  A    between atoms: _14  and  _15
REMARK    8  A    between atoms: _18  and  _20
REMARK    9  A    between atoms: _20  and  _21
REMARK   10  A    between atoms: _20  and  _23
REMARK   11  A    between atoms: _23  and  _24
REMARK   12  A    between atoms: _24  and  _25
REMARK   13  A    between atoms: _25  and  _26
REMARK   14  A    between atoms: _26  and  _27
REMARK   15  A    between atoms: _31  and  _33
REMARK   16  A    between atoms: _33  and  _34
REMARK   17  A    between atoms: _36  and  _38
REMARK   18  A    between atoms: _38  and  _39
REMARK   19  A    between atoms: _41  and  _43
REMARK   20  A    between atoms: _43  and  _44
REMARK   21  A    between atoms: _43  and  _46
REMARK   22  A    between atoms: _46  and  _47
REMARK   23  A    between atoms: _52  and  _53
REMARK   24  A    between atoms: _55  and  _57
REMARK   25  A    between atoms: _57  and  _58
REMARK   26  A    between atoms: _57  and  _60
REMARK   27  A    between atoms: _60  and  _61
REMARK   28  A    between atoms: _64  and  _66
REMARK   29  A    between atoms: _66  and  _67
REMARK   30  A    between atoms: _66  and  _69
REMARK   31  A    between atoms: _69  and  _70
REMARK   32  A    between atoms: _70  and  _71
REMARK   33  A    between atoms: _71  and  _72
REMARK   34  A    between atoms: _72  and  _73
REMARK   35  A    between atoms: _77  and  _79
REMARK   36  A    between atoms: _79  and  _80
REMARK   37  A    between atoms: _79  and  _82
REMARK   38  A    between atoms: _82  and  _83
REMARK   39  A    between atoms: _85  and  _87
REMARK   40  A    between atoms: _87  and  _88
REMARK   41  A    between atoms: _87  and  _90
REMARK   42  A    between atoms: _90  and  _91
REMARK   43  A    between atoms: _96  and  _97
REMARK   44  A    between atoms: _99  and  _101
REMARK   45  A    between atoms: _101  and  _102
REMARK   46  A    between atoms: _101  and  _104
REMARK   47  A    between atoms: _106  and  _108
REMARK   48  A    between atoms: _108  and  _109
REMARK   49  A    between atoms: _108  and  _111
REMARK   50  A    between atoms: _111  and  _112
REMARK   51  A    between atoms: _117  and  _119
REMARK   52  A    between atoms: _119  and  _120
REMARK   53  A    between atoms: _119  and  _122
REMARK   54  A    between atoms: _122  and  _123
REMARK   55  A    between atoms: _126  and  _128
REMARK   56  A    between atoms: _128  and  _129
REMARK   57  A    between atoms: _128  and  _131
REMARK   58  A    between atoms: _131  and  _132
REMARK   59  A    between atoms: _132  and  _133
REMARK   60  A    between atoms: _138  and  _140
REMARK   61  A    between atoms: _140  and  _141
REMARK   62  A    between atoms: _140  and  _143
REMARK   63  A    between atoms: _143  and  _144
REMARK   64  A    between atoms: _146  and  _148
REMARK   65  A    between atoms: _148  and  _149
REMARK   66  A    between atoms: _148  and  _151
REMARK   67  A    between atoms: _151  and  _152
REMARK   68  A    between atoms: _155  and  _157
REMARK   69  A    between atoms: _157  and  _158
REMARK   70  A    between atoms: _160  and  _162
REMARK   71  A    between atoms: _162  and  _163
REMARK   72  A    between atoms: _162  and  _165
REMARK   73  A    between atoms: _165  and  _166
REMARK   74  A    between atoms: _169  and  _171
REMARK   75  A    between atoms: _171  and  _172
REMARK   76  A    between atoms: _171  and  _174
REMARK   77  A    between atoms: _174  and  _175
REMARK   78  A    between atoms: _175  and  _176
REMARK   79  A    between atoms: _179  and  _181
REMARK   80  A    between atoms: _181  and  _182
REMARK   81  A    between atoms: _181  and  _184
REMARK   82  A    between atoms: _184  and  _185
REMARK   83  A    between atoms: _188  and  _190
REMARK   84  A    between atoms: _190  and  _191
REMARK   85  A    between atoms: _190  and  _193
REMARK   86  A    between atoms: _193  and  _194
REMARK   87  A    between atoms: _197  and  _199
REMARK   88  A    between atoms: _199  and  _200
REMARK   89  A    between atoms: _199  and  _202
REMARK   90  A    between atoms: _202  and  _203
REMARK   91  A    between atoms: _206  and  _208
REMARK   92  A    between atoms: _208  and  _209
REMARK   93  A    between atoms: _208  and  _211
REMARK   94  A    between atoms: _211  and  _212
REMARK   95  A    between atoms: _215  and  _217
REMARK   96  A    between atoms: _217  and  _218
REMARK   97  A    between atoms: _217  and  _220
REMARK   98  A    between atoms: _220  and  _221
REMARK   99  A    between atoms: _224  and  _226
REMARK  100  A    between atoms: _226  and  _227
REMARK  101  A    between atoms: _229  and  _231
REMARK  102  A    between atoms: _231  and  _232
REMARK  103  A    between atoms: _231  and  _234
REMARK  104  A    between atoms: _234  and  _235
REMARK  105  A    between atoms: _235  and  _236
REMARK  106  A    between atoms: _236  and  _237
REMARK  107  A    between atoms: _237  and  _238
REMARK  108  A    between atoms: _242  and  _244
REMARK  109  A    between atoms: _244  and  _245
REMARK  110  A    between atoms: _244  and  _247
REMARK  111  A    between atoms: _247  and  _248
REMARK  112  A    between atoms: _251  and  _253
REMARK  113  A    between atoms: _253  and  _254
REMARK  114  A    between atoms: _253  and  _256
REMARK  115  A    between atoms: _256  and  _257
REMARK  116  A    between atoms: _257  and  _258
REMARK  117  A    between atoms: _260  and  _262
REMARK  118  A    between atoms: _262  and  _263
REMARK  119  A    between atoms: _262  and  _265
REMARK  120  A    between atoms: _265  and  _266
REMARK  121  A    between atoms: _266  and  _267
REMARK  122  A    between atoms: _272  and  _274
REMARK  123  A    between atoms: _274  and  _275
REMARK  124  A    between atoms: _274  and  _277
REMARK  125  A    between atoms: _277  and  _278
REMARK  126  A    between atoms: _281  and  _283
REMARK  127  A    between atoms: _283  and  _284
REMARK  128  A    between atoms: _283  and  _286
REMARK  129  A    between atoms: _286  and  _287
REMARK  130  A    between atoms: _290  and  _292
REMARK  131  A    between atoms: _292  and  _293
REMARK  132  A    between atoms: _292  and  _295
REMARK  133  A    between atoms: _295  and  _296
REMARK  134  A    between atoms: _298  and  _300
REMARK  135  A    between atoms: _300  and  _301
REMARK  136  A    between atoms: _300  and  _303
REMARK  137  A    between atoms: _303  and  _304
REMARK  138  A    between atoms: _307  and  _309
REMARK  139  A    between atoms: _309  and  _310
REMARK  140  A    between atoms: _309  and  _312
REMARK  141  A    between atoms: _312  and  _313
REMARK  142  A    between atoms: _313  and  _314
REMARK  143  A    between atoms: _314  and  _315
REMARK  144  A    between atoms: _315  and  _316
REMARK  145  A    between atoms: _320  and  _322
REMARK  146  A    between atoms: _322  and  _323
REMARK  147  A    between atoms: _322  and  _325
REMARK  148  A    between atoms: _325  and  _326
REMARK  149  A    between atoms: _329  and  _331
REMARK  150  A    between atoms: _331  and  _332
REMARK  151  A    between atoms: _331  and  _334
REMARK  152  A    between atoms: _334  and  _335
REMARK  153  A    between atoms: _335  and  _336
REMARK  154  A    between atoms: _336  and  _337
REMARK  155  A    between atoms: _346  and  _348
REMARK  156  A    between atoms: _348  and  _349
REMARK  157  A    between atoms: _348  and  _351
REMARK  158  A    between atoms: _351  and  _352
REMARK  159  A    between atoms: _354  and  _356
REMARK  160  A    between atoms: _356  and  _357
REMARK  161  A    between atoms: _356  and  _359
REMARK  162  A    between atoms: _362  and  _364
REMARK  163  A    between atoms: _364  and  _365
REMARK  164  A    between atoms: _364  and  _367
REMARK  165  A    between atoms: _367  and  _368
REMARK  166  A    between atoms: _373  and  _374
REMARK  167  A    between atoms: _376  and  _378
REMARK  168  A    between atoms: _378  and  _379
REMARK  169  A    between atoms: _378  and  _381
REMARK  170  A    between atoms: _381  and  _382
REMARK  171  A    between atoms: _386  and  _387
REMARK  172  A    between atoms: _392  and  _394
REMARK  173  A    between atoms: _394  and  _395
REMARK  174  A    between atoms: _394  and  _397
REMARK  175  A    between atoms: _397  and  _398
REMARK  176  A    between atoms: _401  and  _403
REMARK  177  A    between atoms: _403  and  _404
REMARK  178  A    between atoms: _403  and  _406
REMARK  179  A    between atoms: _406  and  _407
REMARK  180  A    between atoms: _407  and  _408
REMARK  181  A    between atoms: _408  and  _409
REMARK  182  A    between atoms: _409  and  _410
REMARK  183  A    between atoms: _414  and  _416
REMARK  184  A    between atoms: _416  and  _417
REMARK  185  A    between atoms: _416  and  _419
REMARK  186  A    between atoms: _419  and  _420
REMARK  187  A    between atoms: _426  and  _428
REMARK  188  A    between atoms: _428  and  _429
REMARK  189  A    between atoms: _428  and  _431
REMARK  190  A    between atoms: _434  and  _436
REMARK  191  A    between atoms: _436  and  _437
REMARK  192  A    between atoms: _436  and  _439
REMARK  193  A    between atoms: _442  and  _444
REMARK  194  A    between atoms: _444  and  _445
REMARK  195  A    between atoms: _447  and  _449
REMARK  196  A    between atoms: _449  and  _450
REMARK  197  A    between atoms: _449  and  _452
REMARK  198  A    between atoms: _452  and  _453
REMARK  199  A    between atoms: _458  and  _459
REMARK  200  A    between atoms: _461  and  _463
REMARK  201  A    between atoms: _463  and  _464
REMARK  202  A    between atoms: _467  and  _469
REMARK  203  A    between atoms: _469  and  _470
REMARK  204  A    between atoms: _469  and  _472
REMARK  205  A    between atoms: _472  and  _473
REMARK  206  A    between atoms: _476  and  _478
REMARK  207  A    between atoms: _478  and  _479
REMARK  208  A    between atoms: _478  and  _481
REMARK  209  A    between atoms: _481  and  _482
REMARK  210  A    between atoms: _482  and  _483
REMARK  211  A    between atoms: _483  and  MG_588
REMARK  212  A    between atoms: _485  and  _487
REMARK  213  A    between atoms: _487  and  _488
REMARK  214  A    between atoms: _487  and  _490
REMARK  215  A    between atoms: _490  and  _491
REMARK  216  A    between atoms: _496  and  _497
REMARK  217  A    between atoms: _499  and  _501
REMARK  218  A    between atoms: _501  and  _502
REMARK  219  A    between atoms: _501  and  _504
REMARK  220  A    between atoms: _504  and  _505
REMARK  221  A    between atoms: _510  and  _512
REMARK  222  A    between atoms: _512  and  _513
REMARK  223  A    between atoms: _512  and  _515
REMARK  224  A    between atoms: _515  and  _516
REMARK  225  A    between atoms: _516  and  _517
REMARK  226  A    between atoms: _520  and  _522
REMARK  227  A    between atoms: _522  and  _523
REMARK  228  A    between atoms: _522  and  _525
REMARK  229  A    between atoms: _525  and  _526
REMARK  230  A    between atoms: _531  and  _532
REMARK  231  A    between atoms: _534  and  _536
REMARK  232  A    between atoms: _536  and  _537
REMARK  233  A    between atoms: _536  and  _539
REMARK  234  A    between atoms: _539  and  _540
REMARK  235  A    between atoms: _546  and  _548
REMARK  236  A    between atoms: _548  and  _549
REMARK  237  A    between atoms: _548  and  _551
REMARK  238  A    between atoms: _551  and  _552
REMARK  239  A    between atoms: _552  and  _553
REMARK  240  A    between atoms: _553  and  _554
REMARK  241  A    between atoms: _563  and  _565
REMARK  242  A    between atoms: _565  and  _566
REMARK  243  A    between atoms: _565  and  _568
REMARK  244  A    between atoms: _571  and  _573
REMARK  245  A    between atoms: _573  and  _574
REMARK  246  A    between atoms: _573  and  _576
REMARK  247  A    between atoms: _578  and  _580
REMARK  248  A    between atoms: _580  and  _581
REMARK  249  A    between atoms: _580  and  _583
REMARK  250  A    between atoms: _583  and  _584
REMARK                            x       y       z     vdW  Elec       q    Type
REMARK                         _______ _______ _______ _____ _____    ______ ____
ROOT
ATOM      1  O   HOH     1      13.850  86.901  43.535  0.00  0.00    +0.000 OA
ENDROOT
TORSDOF 0
REMARK  Name = ../refined-set-2016/1bzy/1bzy_pocket.pdb
REMARK  250 active torsions:
REMARK  status: ('A' for Active; 'I' for Inactive)
REMARK    1  A    between atoms: _1  and  _3
REMARK    2  A    between atoms: _3  and  _4
REMARK    3  A    between atoms: _3  and  _6
REMARK    4  A    between atoms: _9  and  _11
REMARK    5  A    between atoms: _11  and  _12
REMARK    6  A    between atoms: _11  and  _14
REMARK    7  A    between atoms: _14  and  _15
REMARK    8  A    between atoms: _18  and  _20
REMARK    9  A    between atoms: _20  and  _21
REMARK   10  A    between atoms: _20  and  _23
REMARK   11  A    between atoms: _23  and  _24
REMARK   12  A    between atoms: _24  and  _25
REMARK   13  A    between atoms: _25  and  _26
REMARK   14  A    between atoms: _26  and  _27
REMARK   15  A    between atoms: _31  and  _33
REMARK   16  A    between atoms: _33  and  _34
REMARK   17  A    between atoms: _36  and  _38
REMARK   18  A    between atoms: _38  and  _39
REMARK   19  A    between atoms: _41  and  _43
REMARK   20  A    between atoms: _43  and  _44
REMARK   21  A    between atoms: _43  and  _46
REMARK   22  A    between atoms: _46  and  _47
REMARK   23  A    between atoms: _52  and  _53
REMARK   24  A    between atoms: _55  and  _57
REMARK   25  A    between atoms: _57  and  _58
REMARK   26  A    between atoms: _57  and  _60
REMARK   27  A    between atoms: _60  and  _61
REMARK   28  A    between atoms: _64  and  _66
REMARK   29  A    between atoms: _66  and  _67
REMARK   30  A    between atoms: _66  and  _69
REMARK   31  A    between atoms: _69  and  _70
REMARK   32  A    between atoms: _70  and  _71
REMARK   33  A    between atoms: _71  and  _72
REMARK   34  A    between atoms: _72  and  _73
REMARK   35  A    between atoms: _77  and  _79
REMARK   36  A    between atoms: _79  and  _80
REMARK   37  A    between atoms: _79  and  _82
REMARK   38  A    between atoms: _82  and  _83
REMARK   39  A    between atoms: _85  and  _87
REMARK   40  A    between atoms: _87  and  _88
REMARK   41  A    between atoms: _87  and  _90
REMARK   42  A    between atoms: _90  and  _91
REMARK   43  A    between atoms: _96  and  _97
REMARK   44  A    between atoms: _99  and  _101
REMARK   45  A    between atoms: _101  and  _102
REMARK   46  A    between atoms: _101  and  _104
REMARK   47  A    between atoms: _106  and  _108
REMARK   48  A    between atoms: _108  and  _109
REMARK   49  A    between atoms: _108  and  _111
REMARK   50  A    between atoms: _111  and  _112
REMARK   51  A    between atoms: _117  and  _119
REMARK   52  A    between atoms: _119  and  _120
REMARK   53  A    between atoms: _119  and  _122
REMARK   54  A    between atoms: _122  and  _123
REMARK   55  A    between atoms: _126  and  _128
REMARK   56  A    between atoms: _128  and  _129
REMARK   57  A    between atoms: _128  and  _131
REMARK   58  A    between atoms: _131  and  _132
REMARK   59  A    between atoms: _132  and  _133
REMARK   60  A    between atoms: _138  and  _140
REMARK   61  A    between atoms: _140  and  _141
REMARK   62  A    between atoms: _140  and  _143
REMARK   63  A    between atoms: _143  and  _144
REMARK   64  A    between atoms: _146  and  _148
REMARK   65  A    between atoms: _148  and  _149
REMARK   66  A    between atoms: _148  and  _151
REMARK   67  A    between atoms: _151  and  _152
REMARK   68  A    between atoms: _155  and  _157
REMARK   69  A    between atoms: _157  and  _158
REMARK   70  A    between atoms: _160  and  _162
REMARK   71  A    between atoms: _162  and  _163
REMARK   72  A    between atoms: _162  and  _165
REMARK   73  A    between atoms: _165  and  _166
REMARK   74  A    between atoms: _169  and  _171
REMARK   75  A    between atoms: _171  and  _172
REMARK   76  A    between atoms: _171  and  _174
REMARK   77  A    between atoms: _174  and  _175
REMARK   78  A    between atoms: _175  and  _176
REMARK   79  A    between atoms: _179  and  _181
REMARK   80  A    between atoms: _181  and  _182
REMARK   81  A    between atoms: _181  and  _184
REMARK   82  A    between atoms: _184  and  _185
REMARK   83  A    between atoms: _188  and  _190
REMARK   84  A    between atoms: _190  and  _191
REMARK   85  A    between atoms: _190  and  _193
REMARK   86  A    between atoms: _193  and  _194
REMARK   87  A    between atoms: _197  and  _199
REMARK   88  A    between atoms: _199  and  _200
REMARK   89  A    between atoms: _199  and  _202
REMARK   90  A    between atoms: _202  and  _203
REMARK   91  A    between atoms: _206  and  _208
REMARK   92  A    between atoms: _208  and  _209
REMARK   93  A    between atoms: _208  and  _211
REMARK   94  A    between atoms: _211  and  _212
REMARK   95  A    between atoms: _215  and  _217
REMARK   96  A    between atoms: _217  and  _218
REMARK   97  A    between atoms: _217  and  _220
REMARK   98  A    between atoms: _220  and  _221
REMARK   99  A    between atoms: _224  and  _226
REMARK  100  A    between atoms: _226  and  _227
REMARK  101  A    between atoms: _229  and  _231
REMARK  102  A    between atoms: _231  and  _232
REMARK  103  A    between atoms: _231  and  _234
REMARK  104  A    between atoms: _234  and  _235
REMARK  105  A    between atoms: _235  and  _236
REMARK  106  A    between atoms: _236  and  _237
REMARK  107  A    between atoms: _237  and  _238
REMARK  108  A    between atoms: _242  and  _244
REMARK  109  A    between atoms: _244  and  _245
REMARK  110  A    between atoms: _244  and  _247
REMARK  111  A    between atoms: _247  and  _248
REMARK  112  A    between atoms: _251  and  _253
REMARK  113  A    between atoms: _253  and  _254
REMARK  114  A    between atoms: _253  and  _256
REMARK  115  A    between atoms: _256  and  _257
REMARK  116  A    between atoms: _257  and  _258
REMARK  117  A    between atoms: _260  and  _262
REMARK  118  A    between atoms: _262  and  _263
REMARK  119  A    between atoms: _262  and  _265
REMARK  120  A    between atoms: _265  and  _266
REMARK  121  A    between atoms: _266  and  _267
REMARK  122  A    between atoms: _272  and  _274
REMARK  123  A    between atoms: _274  and  _275
REMARK  124  A    between atoms: _274  and  _277
REMARK  125  A    between atoms: _277  and  _278
REMARK  126  A    between atoms: _281  and  _283
REMARK  127  A    between atoms: _283  and  _284
REMARK  128  A    between atoms: _283  and  _286
REMARK  129  A    between atoms: _286  and  _287
REMARK  130  A    between atoms: _290  and  _292
REMARK  131  A    between atoms: _292  and  _293
REMARK  132  A    between atoms: _292  and  _295
REMARK  133  A    between atoms: _295  and  _296
REMARK  134  A    between atoms: _298  and  _300
REMARK  135  A    between atoms: _300  and  _301
REMARK  136  A    between atoms: _300  and  _303
REMARK  137  A    between atoms: _303  and  _304
REMARK  138  A    between atoms: _307  and  _309
REMARK  139  A    between atoms: _309  and  _310
REMARK  140  A    between atoms: _309  and  _312
REMARK  141  A    between atoms: _312  and  _313
REMARK  142  A    between atoms: _313  and  _314
REMARK  143  A    between atoms: _314  and  _315
REMARK  144  A    between atoms: _315  and  _316
REMARK  145  A    between atoms: _320  and  _322
REMARK  146  A    between atoms: _322  and  _323
REMARK  147  A    between atoms: _322  and  _325
REMARK  148  A    between atoms: _325  and  _326
REMARK  149  A    between atoms: _329  and  _331
REMARK  150  A    between atoms: _331  and  _332
REMARK  151  A    between atoms: _331  and  _334
REMARK  152  A    between atoms: _334  and  _335
REMARK  153  A    between atoms: _335  and  _336
REMARK  154  A    between atoms: _336  and  _337
REMARK  155  A    between atoms: _346  and  _348
REMARK  156  A    between atoms: _348  and  _349
REMARK  157  A    between atoms: _348  and  _351
REMARK  158  A    between atoms: _351  and  _352
REMARK  159  A    between atoms: _354  and  _356
REMARK  160  A    between atoms: _356  and  _357
REMARK  161  A    between atoms: _356  and  _359
REMARK  162  A    between atoms: _362  and  _364
REMARK  163  A    between atoms: _364  and  _365
REMARK  164  A    between atoms: _364  and  _367
REMARK  165  A    between atoms: _367  and  _368
REMARK  166  A    between atoms: _373  and  _374
REMARK  167  A    between atoms: _376  and  _378
REMARK  168  A    between atoms: _378  and  _379
REMARK  169  A    between atoms: _378  and  _381
REMARK  170  A    between atoms: _381  and  _382
REMARK  171  A    between atoms: _386  and  _387
REMARK  172  A    between atoms: _392  and  _394
REMARK  173  A    between atoms: _394  and  _395
REMARK  174  A    between atoms: _394  and  _397
REMARK  175  A    between atoms: _397  and  _398
REMARK  176  A    between atoms: _401  and  _403
REMARK  177  A    between atoms: _403  and  _404
REMARK  178  A    between atoms: _403  and  _406
REMARK  179  A    between atoms: _406  and  _407
REMARK  180  A    between atoms: _407  and  _408
REMARK  181  A    between atoms: _408  and  _409
REMARK  182  A    between atoms: _409  and  _410
REMARK  183  A    between atoms: _414  and  _416
REMARK  184  A    between atoms: _416  and  _417
REMARK  185  A    between atoms: _416  and  _419
REMARK  186  A    between atoms: _419  and  _420
REMARK  187  A    between atoms: _426  and  _428
REMARK  188  A    between atoms: _428  and  _429
REMARK  189  A    between atoms: _428  and  _431
REMARK  190  A    between atoms: _434  and  _436
REMARK  191  A    between atoms: _436  and  _437
REMARK  192  A    between atoms: _436  and  _439
REMARK  193  A    between atoms: _442  and  _444
REMARK  194  A    between atoms: _444  and  _445
REMARK  195  A    between atoms: _447  and  _449
REMARK  196  A    between atoms: _449  and  _450
REMARK  197  A    between atoms: _449  and  _452
REMARK  198  A    between atoms: _452  and  _453
REMARK  199  A    between atoms: _458  and  _459
REMARK  200  A    between atoms: _461  and  _463
REMARK  201  A    between atoms: _463  and  _464
REMARK  202  A    between atoms: _467  and  _469
REMARK  203  A    between atoms: _469  and  _470
REMARK  204  A    between atoms: _469  and  _472
REMARK  205  A    between atoms: _472  and  _473
REMARK  206  A    between atoms: _476  and  _478
REMARK  207  A    between atoms: _478  and  _479
REMARK  208  A    between atoms: _478  and  _481
REMARK  209  A    between atoms: _481  and  _482
REMARK  210  A    between atoms: _482  and  _483
REMARK  211  A    between atoms: _483  and  MG_588
REMARK  212  A    between atoms: _485  and  _487
REMARK  213  A    between atoms: _487  and  _488
REMARK  214  A    between atoms: _487  and  _490
REMARK  215  A    between atoms: _490  and  _491
REMARK  216  A    between atoms: _496  and  _497
REMARK  217  A    between atoms: _499  and  _501
REMARK  218  A    between atoms: _501  and  _502
REMARK  219  A    between atoms: _501  and  _504
REMARK  220  A    between atoms: _504  and  _505
REMARK  221  A    between atoms: _510  and  _512
REMARK  222  A    between atoms: _512  and  _513
REMARK  223  A    between atoms: _512  and  _515
REMARK  224  A    between atoms: _515  and  _516
REMARK  225  A    between atoms: _516  and  _517
REMARK  226  A    between atoms: _520  and  _522
REMARK  227  A    between atoms: _522  and  _523
REMARK  228  A    between atoms: _522  and  _525
REMARK  229  A    between atoms: _525  and  _526
REMARK  230  A    between atoms: _531  and  _532
REMARK  231  A    between atoms: _534  and  _536
REMARK  232  A    between atoms: _536  and  _537
REMARK  233  A    between atoms: _536  and  _539
REMARK  234  A    between atoms: _539  and  _540
REMARK  235  A    between atoms: _546  and  _548
REMARK  236  A    between atoms: _548  and  _549
REMARK  237  A    between atoms: _548  and  _551
REMARK  238  A    between atoms: _551  and  _552
REMARK  239  A    between atoms: _552  and  _553
REMARK  240  A    between atoms: _553  and  _554
REMARK  241  A    between atoms: _563  and  _565
REMARK  242  A    between atoms: _565  and  _566
REMARK  243  A    between atoms: _565  and  _568
REMARK  244  A    between atoms: _571  and  _573
REMARK  245  A    between atoms: _573  and  _574
REMARK  246  A    between atoms: _573  and  _576
REMARK  247  A    between atoms: _578  and  _580
REMARK  248  A    between atoms: _580  and  _581
REMARK  249  A    between atoms: _580  and  _583
REMARK  250  A    between atoms: _583  and  _584
REMARK                            x       y       z     vdW  Elec       q    Type
REMARK                         _______ _______ _______ _____ _____    ______ ____
ROOT
ATOM      1  O   HOH     1       2.294  90.657  39.027  0.00  0.00    +0.000 OA
ENDROOT
TORSDOF 0
REMARK  Name = ../refined-set-2016/1bzy/1bzy_pocket.pdb
REMARK  250 active torsions:
REMARK  status: ('A' for Active; 'I' for Inactive)
REMARK    1  A    between atoms: _1  and  _3
REMARK    2  A    between atoms: _3  and  _4
REMARK    3  A    between atoms: _3  and  _6
REMARK    4  A    between atoms: _9  and  _11
REMARK    5  A    between atoms: _11  and  _12
REMARK    6  A    between atoms: _11  and  _14
REMARK    7  A    between atoms: _14  and  _15
REMARK    8  A    between atoms: _18  and  _20
REMARK    9  A    between atoms: _20  and  _21
REMARK   10  A    between atoms: _20  and  _23
REMARK   11  A    between atoms: _23  and  _24
REMARK   12  A    between atoms: _24  and  _25
REMARK   13  A    between atoms: _25  and  _26
REMARK   14  A    between atoms: _26  and  _27
REMARK   15  A    between atoms: _31  and  _33
REMARK   16  A    between atoms: _33  and  _34
REMARK   17  A    between atoms: _36  and  _38
REMARK   18  A    between atoms: _38  and  _39
REMARK   19  A    between atoms: _41  and  _43
REMARK   20  A    between atoms: _43  and  _44
REMARK   21  A    between atoms: _43  and  _46
REMARK   22  A    between atoms: _46  and  _47
REMARK   23  A    between atoms: _52  and  _53
REMARK   24  A    between atoms: _55  and  _57
REMARK   25  A    between atoms: _57  and  _58
REMARK   26  A    between atoms: _57  and  _60
REMARK   27  A    between atoms: _60  and  _61
REMARK   28  A    between atoms: _64  and  _66
REMARK   29  A    between atoms: _66  and  _67
REMARK   30  A    between atoms: _66  and  _69
REMARK   31  A    between atoms: _69  and  _70
REMARK   32  A    between atoms: _70  and  _71
REMARK   33  A    between atoms: _71  and  _72
REMARK   34  A    between atoms: _72  and  _73
REMARK   35  A    between atoms: _77  and  _79
REMARK   36  A    between atoms: _79  and  _80
REMARK   37  A    between atoms: _79  and  _82
REMARK   38  A    between atoms: _82  and  _83
REMARK   39  A    between atoms: _85  and  _87
REMARK   40  A    between atoms: _87  and  _88
REMARK   41  A    between atoms: _87  and  _90
REMARK   42  A    between atoms: _90  and  _91
REMARK   43  A    between atoms: _96  and  _97
REMARK   44  A    between atoms: _99  and  _101
REMARK   45  A    between atoms: _101  and  _102
REMARK   46  A    between atoms: _101  and  _104
REMARK   47  A    between atoms: _106  and  _108
REMARK   48  A    between atoms: _108  and  _109
REMARK   49  A    between atoms: _108  and  _111
REMARK   50  A    between atoms: _111  and  _112
REMARK   51  A    between atoms: _117  and  _119
REMARK   52  A    between atoms: _119  and  _120
REMARK   53  A    between atoms: _119  and  _122
REMARK   54  A    between atoms: _122  and  _123
REMARK   55  A    between atoms: _126  and  _128
REMARK   56  A    between atoms: _128  and  _129
REMARK   57  A    between atoms: _128  and  _131
REMARK   58  A    between atoms: _131  and  _132
REMARK   59  A    between atoms: _132  and  _133
REMARK   60  A    between atoms: _138  and  _140
REMARK   61  A    between atoms: _140  and  _141
REMARK   62  A    between atoms: _140  and  _143
REMARK   63  A    between atoms: _143  and  _144
REMARK   64  A    between atoms: _146  and  _148
REMARK   65  A    between atoms: _148  and  _149
REMARK   66  A    between atoms: _148  and  _151
REMARK   67  A    between atoms: _151  and  _152
REMARK   68  A    between atoms: _155  and  _157
REMARK   69  A    between atoms: _157  and  _158
REMARK   70  A    between atoms: _160  and  _162
REMARK   71  A    between atoms: _162  and  _163
REMARK   72  A    between atoms: _162  and  _165
REMARK   73  A    between atoms: _165  and  _166
REMARK   74  A    between atoms: _169  and  _171
REMARK   75  A    between atoms: _171  and  _172
REMARK   76  A    between atoms: _171  and  _174
REMARK   77  A    between atoms: _174  and  _175
REMARK   78  A    between atoms: _175  and  _176
REMARK   79  A    between atoms: _179  and  _181
REMARK   80  A    between atoms: _181  and  _182
REMARK   81  A    between atoms: _181  and  _184
REMARK   82  A    between atoms: _184  and  _185
REMARK   83  A    between atoms: _188  and  _190
REMARK   84  A    between atoms: _190  and  _191
REMARK   85  A    between atoms: _190  and  _193
REMARK   86  A    between atoms: _193  and  _194
REMARK   87  A    between atoms: _197  and  _199
REMARK   88  A    between atoms: _199  and  _200
REMARK   89  A    between atoms: _199  and  _202
REMARK   90  A    between atoms: _202  and  _203
REMARK   91  A    between atoms: _206  and  _208
REMARK   92  A    between atoms: _208  and  _209
REMARK   93  A    between atoms: _208  and  _211
REMARK   94  A    between atoms: _211  and  _212
REMARK   95  A    between atoms: _215  and  _217
REMARK   96  A    between atoms: _217  and  _218
REMARK   97  A    between atoms: _217  and  _220
REMARK   98  A    between atoms: _220  and  _221
REMARK   99  A    between atoms: _224  and  _226
REMARK  100  A    between atoms: _226  and  _227
REMARK  101  A    between atoms: _229  and  _231
REMARK  102  A    between atoms: _231  and  _232
REMARK  103  A    between atoms: _231  and  _234
REMARK  104  A    between atoms: _234  and  _235
REMARK  105  A    between atoms: _235  and  _236
REMARK  106  A    between atoms: _236  and  _237
REMARK  107  A    between atoms: _237  and  _238
REMARK  108  A    between atoms: _242  and  _244
REMARK  109  A    between atoms: _244  and  _245
REMARK  110  A    between atoms: _244  and  _247
REMARK  111  A    between atoms: _247  and  _248
REMARK  112  A    between atoms: _251  and  _253
REMARK  113  A    between atoms: _253  and  _254
REMARK  114  A    between atoms: _253  and  _256
REMARK  115  A    between atoms: _256  and  _257
REMARK  116  A    between atoms: _257  and  _258
REMARK  117  A    between atoms: _260  and  _262
REMARK  118  A    between atoms: _262  and  _263
REMARK  119  A    between atoms: _262  and  _265
REMARK  120  A    between atoms: _265  and  _266
REMARK  121  A    between atoms: _266  and  _267
REMARK  122  A    between atoms: _272  and  _274
REMARK  123  A    between atoms: _274  and  _275
REMARK  124  A    between atoms: _274  and  _277
REMARK  125  A    between atoms: _277  and  _278
REMARK  126  A    between atoms: _281  and  _283
REMARK  127  A    between atoms: _283  and  _284
REMARK  128  A    between atoms: _283  and  _286
REMARK  129  A    between atoms: _286  and  _287
REMARK  130  A    between atoms: _290  and  _292
REMARK  131  A    between atoms: _292  and  _293
REMARK  132  A    between atoms: _292  and  _295
REMARK  133  A    between atoms: _295  and  _296
REMARK  134  A    between atoms: _298  and  _300
REMARK  135  A    between atoms: _300  and  _301
REMARK  136  A    between atoms: _300  and  _303
REMARK  137  A    between atoms: _303  and  _304
REMARK  138  A    between atoms: _307  and  _309
REMARK  139  A    between atoms: _309  and  _310
REMARK  140  A    between atoms: _309  and  _312
REMARK  141  A    between atoms: _312  and  _313
REMARK  142  A    between atoms: _313  and  _314
REMARK  143  A    between atoms: _314  and  _315
REMARK  144  A    between atoms: _315  and  _316
REMARK  145  A    between atoms: _320  and  _322
REMARK  146  A    between atoms: _322  and  _323
REMARK  147  A    between atoms: _322  and  _325
REMARK  148  A    between atoms: _325  and  _326
REMARK  149  A    between atoms: _329  and  _331
REMARK  150  A    between atoms: _331  and  _332
REMARK  151  A    between atoms: _331  and  _334
REMARK  152  A    between atoms: _334  and  _335
REMARK  153  A    between atoms: _335  and  _336
REMARK  154  A    between atoms: _336  and  _337
REMARK  155  A    between atoms: _346  and  _348
REMARK  156  A    between atoms: _348  and  _349
REMARK  157  A    between atoms: _348  and  _351
REMARK  158  A    between atoms: _351  and  _352
REMARK  159  A    between atoms: _354  and  _356
REMARK  160  A    between atoms: _356  and  _357
REMARK  161  A    between atoms: _356  and  _359
REMARK  162  A    between atoms: _362  and  _364
REMARK  163  A    between atoms: _364  and  _365
REMARK  164  A    between atoms: _364  and  _367
REMARK  165  A    between atoms: _367  and  _368
REMARK  166  A    between atoms: _373  and  _374
REMARK  167  A    between atoms: _376  and  _378
REMARK  168  A    between atoms: _378  and  _379
REMARK  169  A    between atoms: _378  and  _381
REMARK  170  A    between atoms: _381  and  _382
REMARK  171  A    between atoms: _386  and  _387
REMARK  172  A    between atoms: _392  and  _394
REMARK  173  A    between atoms: _394  and  _395
REMARK  174  A    between atoms: _394  and  _397
REMARK  175  A    between atoms: _397  and  _398
REMARK  176  A    between atoms: _401  and  _403
REMARK  177  A    between atoms: _403  and  _404
REMARK  178  A    between atoms: _403  and  _406
REMARK  179  A    between atoms: _406  and  _407
REMARK  180  A    between atoms: _407  and  _408
REMARK  181  A    between atoms: _408  and  _409
REMARK  182  A    between atoms: _409  and  _410
REMARK  183  A    between atoms: _414  and  _416
REMARK  184  A    between atoms: _416  and  _417
REMARK  185  A    between atoms: _416  and  _419
REMARK  186  A    between atoms: _419  and  _420
REMARK  187  A    between atoms: _426  and  _428
REMARK  188  A    between atoms: _428  and  _429
REMARK  189  A    between atoms: _428  and  _431
REMARK  190  A    between atoms: _434  and  _436
REMARK  191  A    between atoms: _436  and  _437
REMARK  192  A    between atoms: _436  and  _439
REMARK  193  A    between atoms: _442  and  _444
REMARK  194  A    between atoms: _444  and  _445
REMARK  195  A    between atoms: _447  and  _449
REMARK  196  A    between atoms: _449  and  _450
REMARK  197  A    between atoms: _449  and  _452
REMARK  198  A    between atoms: _452  and  _453
REMARK  199  A    between atoms: _458  and  _459
REMARK  200  A    between atoms: _461  and  _463
REMARK  201  A    between atoms: _463  and  _464
REMARK  202  A    between atoms: _467  and  _469
REMARK  203  A    between atoms: _469  and  _470
REMARK  204  A    between atoms: _469  and  _472
REMARK  205  A    between atoms: _472  and  _473
REMARK  206  A    between atoms: _476  and  _478
REMARK  207  A    between atoms: _478  and  _479
REMARK  208  A    between atoms: _478  and  _481
REMARK  209  A    between atoms: _481  and  _482
REMARK  210  A    between atoms: _482  and  _483
REMARK  211  A    between atoms: _483  and  MG_588
REMARK  212  A    between atoms: _485  and  _487
REMARK  213  A    between atoms: _487  and  _488
REMARK  214  A    between atoms: _487  and  _490
REMARK  215  A    between atoms: _490  and  _491
REMARK  216  A    between atoms: _496  and  _497
REMARK  217  A    between atoms: _499  and  _501
REMARK  218  A    between atoms: _501  and  _502
REMARK  219  A    between atoms: _501  and  _504
REMARK  220  A    between atoms: _504  and  _505
REMARK  221  A    between atoms: _510  and  _512
REMARK  222  A    between atoms: _512  and  _513
REMARK  223  A    between atoms: _512  and  _515
REMARK  224  A    between atoms: _515  and  _516
REMARK  225  A    between atoms: _516  and  _517
REMARK  226  A    between atoms: _520  and  _522
REMARK  227  A    between atoms: _522  and  _523
REMARK  228  A    between atoms: _522  and  _525
REMARK  229  A    between atoms: _525  and  _526
REMARK  230  A    between atoms: _531  and  _532
REMARK  231  A    between atoms: _534  and  _536
REMARK  232  A    between atoms: _536  and  _537
REMARK  233  A    between atoms: _536  and  _539
REMARK  234  A    between atoms: _539  and  _540
REMARK  235  A    between atoms: _546  and  _548
REMARK  236  A    between atoms: _548  and  _549
REMARK  237  A    between atoms: _548  and  _551
REMARK  238  A    between atoms: _551  and  _552
REMARK  239  A    between atoms: _552  and  _553
REMARK  240  A    between atoms: _553  and  _554
REMARK  241  A    between atoms: _563  and  _565
REMARK  242  A    between atoms: _565  and  _566
REMARK  243  A    between atoms: _565  and  _568
REMARK  244  A    between atoms: _571  and  _573
REMARK  245  A    between atoms: _573  and  _574
REMARK  246  A    between atoms: _573  and  _576
REMARK  247  A    between atoms: _578  and  _580
REMARK  248  A    between atoms: _580  and  _581
REMARK  249  A    between atoms: _580  and  _583
REMARK  250  A    between atoms: _583  and  _584
REMARK                            x       y       z     vdW  Elec       q    Type
REMARK                         _______ _______ _______ _____ _____    ______ ____
ROOT
ATOM      1  O   HOH     1       9.565  87.077  38.696  0.00  0.00    +0.000 OA
ENDROOT
TORSDOF 0
REMARK  Name = ../refined-set-2016/1bzy/1bzy_pocket.pdb
REMARK  250 active torsions:
REMARK  status: ('A' for Active; 'I' for Inactive)
REMARK    1  A    between atoms: _1  and  _3
REMARK    2  A    between atoms: _3  and  _4
REMARK    3  A    between atoms: _3  and  _6
REMARK    4  A    between atoms: _9  and  _11
REMARK    5  A    between atoms: _11  and  _12
REMARK    6  A    between atoms: _11  and  _14
REMARK    7  A    between atoms: _14  and  _15
REMARK    8  A    between atoms: _18  and  _20
REMARK    9  A    between atoms: _20  and  _21
REMARK   10  A    between atoms: _20  and  _23
REMARK   11  A    between atoms: _23  and  _24
REMARK   12  A    between atoms: _24  and  _25
REMARK   13  A    between atoms: _25  and  _26
REMARK   14  A    between atoms: _26  and  _27
REMARK   15  A    between atoms: _31  and  _33
REMARK   16  A    between atoms: _33  and  _34
REMARK   17  A    between atoms: _36  and  _38
REMARK   18  A    between atoms: _38  and  _39
REMARK   19  A    between atoms: _41  and  _43
REMARK   20  A    between atoms: _43  and  _44
REMARK   21  A    between atoms: _43  and  _46
REMARK   22  A    between atoms: _46  and  _47
REMARK   23  A    between atoms: _52  and  _53
REMARK   24  A    between atoms: _55  and  _57
REMARK   25  A    between atoms: _57  and  _58
REMARK   26  A    between atoms: _57  and  _60
REMARK   27  A    between atoms: _60  and  _61
REMARK   28  A    between atoms: _64  and  _66
REMARK   29  A    between atoms: _66  and  _67
REMARK   30  A    between atoms: _66  and  _69
REMARK   31  A    between atoms: _69  and  _70
REMARK   32  A    between atoms: _70  and  _71
REMARK   33  A    between atoms: _71  and  _72
REMARK   34  A    between atoms: _72  and  _73
REMARK   35  A    between atoms: _77  and  _79
REMARK   36  A    between atoms: _79  and  _80
REMARK   37  A    between atoms: _79  and  _82
REMARK   38  A    between atoms: _82  and  _83
REMARK   39  A    between atoms: _85  and  _87
REMARK   40  A    between atoms: _87  and  _88
REMARK   41  A    between atoms: _87  and  _90
REMARK   42  A    between atoms: _90  and  _91
REMARK   43  A    between atoms: _96  and  _97
REMARK   44  A    between atoms: _99  and  _101
REMARK   45  A    between atoms: _101  and  _102
REMARK   46  A    between atoms: _101  and  _104
REMARK   47  A    between atoms: _106  and  _108
REMARK   48  A    between atoms: _108  and  _109
REMARK   49  A    between atoms: _108  and  _111
REMARK   50  A    between atoms: _111  and  _112
REMARK   51  A    between atoms: _117  and  _119
REMARK   52  A    between atoms: _119  and  _120
REMARK   53  A    between atoms: _119  and  _122
REMARK   54  A    between atoms: _122  and  _123
REMARK   55  A    between atoms: _126  and  _128
REMARK   56  A    between atoms: _128  and  _129
REMARK   57  A    between atoms: _128  and  _131
REMARK   58  A    between atoms: _131  and  _132
REMARK   59  A    between atoms: _132  and  _133
REMARK   60  A    between atoms: _138  and  _140
REMARK   61  A    between atoms: _140  and  _141
REMARK   62  A    between atoms: _140  and  _143
REMARK   63  A    between atoms: _143  and  _144
REMARK   64  A    between atoms: _146  and  _148
REMARK   65  A    between atoms: _148  and  _149
REMARK   66  A    between atoms: _148  and  _151
REMARK   67  A    between atoms: _151  and  _152
REMARK   68  A    between atoms: _155  and  _157
REMARK   69  A    between atoms: _157  and  _158
REMARK   70  A    between atoms: _160  and  _162
REMARK   71  A    between atoms: _162  and  _163
REMARK   72  A    between atoms: _162  and  _165
REMARK   73  A    between atoms: _165  and  _166
REMARK   74  A    between atoms: _169  and  _171
REMARK   75  A    between atoms: _171  and  _172
REMARK   76  A    between atoms: _171  and  _174
REMARK   77  A    between atoms: _174  and  _175
REMARK   78  A    between atoms: _175  and  _176
REMARK   79  A    between atoms: _179  and  _181
REMARK   80  A    between atoms: _181  and  _182
REMARK   81  A    between atoms: _181  and  _184
REMARK   82  A    between atoms: _184  and  _185
REMARK   83  A    between atoms: _188  and  _190
REMARK   84  A    between atoms: _190  and  _191
REMARK   85  A    between atoms: _190  and  _193
REMARK   86  A    between atoms: _193  and  _194
REMARK   87  A    between atoms: _197  and  _199
REMARK   88  A    between atoms: _199  and  _200
REMARK   89  A    between atoms: _199  and  _202
REMARK   90  A    between atoms: _202  and  _203
REMARK   91  A    between atoms: _206  and  _208
REMARK   92  A    between atoms: _208  and  _209
REMARK   93  A    between atoms: _208  and  _211
REMARK   94  A    between atoms: _211  and  _212
REMARK   95  A    between atoms: _215  and  _217
REMARK   96  A    between atoms: _217  and  _218
REMARK   97  A    between atoms: _217  and  _220
REMARK   98  A    between atoms: _220  and  _221
REMARK   99  A    between atoms: _224  and  _226
REMARK  100  A    between atoms: _226  and  _227
REMARK  101  A    between atoms: _229  and  _231
REMARK  102  A    between atoms: _231  and  _232
REMARK  103  A    between atoms: _231  and  _234
REMARK  104  A    between atoms: _234  and  _235
REMARK  105  A    between atoms: _235  and  _236
REMARK  106  A    between atoms: _236  and  _237
REMARK  107  A    between atoms: _237  and  _238
REMARK  108  A    between atoms: _242  and  _244
REMARK  109  A    between atoms: _244  and  _245
REMARK  110  A    between atoms: _244  and  _247
REMARK  111  A    between atoms: _247  and  _248
REMARK  112  A    between atoms: _251  and  _253
REMARK  113  A    between atoms: _253  and  _254
REMARK  114  A    between atoms: _253  and  _256
REMARK  115  A    between atoms: _256  and  _257
REMARK  116  A    between atoms: _257  and  _258
REMARK  117  A    between atoms: _260  and  _262
REMARK  118  A    between atoms: _262  and  _263
REMARK  119  A    between atoms: _262  and  _265
REMARK  120  A    between atoms: _265  and  _266
REMARK  121  A    between atoms: _266  and  _267
REMARK  122  A    between atoms: _272  and  _274
REMARK  123  A    between atoms: _274  and  _275
REMARK  124  A    between atoms: _274  and  _277
REMARK  125  A    between atoms: _277  and  _278
REMARK  126  A    between atoms: _281  and  _283
REMARK  127  A    between atoms: _283  and  _284
REMARK  128  A    between atoms: _283  and  _286
REMARK  129  A    between atoms: _286  and  _287
REMARK  130  A    between atoms: _290  and  _292
REMARK  131  A    between atoms: _292  and  _293
REMARK  132  A    between atoms: _292  and  _295
REMARK  133  A    between atoms: _295  and  _296
REMARK  134  A    between atoms: _298  and  _300
REMARK  135  A    between atoms: _300  and  _301
REMARK  136  A    between atoms: _300  and  _303
REMARK  137  A    between atoms: _303  and  _304
REMARK  138  A    between atoms: _307  and  _309
REMARK  139  A    between atoms: _309  and  _310
REMARK  140  A    between atoms: _309  and  _312
REMARK  141  A    between atoms: _312  and  _313
REMARK  142  A    between atoms: _313  and  _314
REMARK  143  A    between atoms: _314  and  _315
REMARK  144  A    between atoms: _315  and  _316
REMARK  145  A    between atoms: _320  and  _322
REMARK  146  A    between atoms: _322  and  _323
REMARK  147  A    between atoms: _322  and  _325
REMARK  148  A    between atoms: _325  and  _326
REMARK  149  A    between atoms: _329  and  _331
REMARK  150  A    between atoms: _331  and  _332
REMARK  151  A    between atoms: _331  and  _334
REMARK  152  A    between atoms: _334  and  _335
REMARK  153  A    between atoms: _335  and  _336
REMARK  154  A    between atoms: _336  and  _337
REMARK  155  A    between atoms: _346  and  _348
REMARK  156  A    between atoms: _348  and  _349
REMARK  157  A    between atoms: _348  and  _351
REMARK  158  A    between atoms: _351  and  _352
REMARK  159  A    between atoms: _354  and  _356
REMARK  160  A    between atoms: _356  and  _357
REMARK  161  A    between atoms: _356  and  _359
REMARK  162  A    between atoms: _362  and  _364
REMARK  163  A    between atoms: _364  and  _365
REMARK  164  A    between atoms: _364  and  _367
REMARK  165  A    between atoms: _367  and  _368
REMARK  166  A    between atoms: _373  and  _374
REMARK  167  A    between atoms: _376  and  _378
REMARK  168  A    between atoms: _378  and  _379
REMARK  169  A    between atoms: _378  and  _381
REMARK  170  A    between atoms: _381  and  _382
REMARK  171  A    between atoms: _386  and  _387
REMARK  172  A    between atoms: _392  and  _394
REMARK  173  A    between atoms: _394  and  _395
REMARK  174  A    between atoms: _394  and  _397
REMARK  175  A    between atoms: _397  and  _398
REMARK  176  A    between atoms: _401  and  _403
REMARK  177  A    between atoms: _403  and  _404
REMARK  178  A    between atoms: _403  and  _406
REMARK  179  A    between atoms: _406  and  _407
REMARK  180  A    between atoms: _407  and  _408
REMARK  181  A    between atoms: _408  and  _409
REMARK  182  A    between atoms: _409  and  _410
REMARK  183  A    between atoms: _414  and  _416
REMARK  184  A    between atoms: _416  and  _417
REMARK  185  A    between atoms: _416  and  _419
REMARK  186  A    between atoms: _419  and  _420
REMARK  187  A    between atoms: _426  and  _428
REMARK  188  A    between atoms: _428  and  _429
REMARK  189  A    between atoms: _428  and  _431
REMARK  190  A    between atoms: _434  and  _436
REMARK  191  A    between atoms: _436  and  _437
REMARK  192  A    between atoms: _436  and  _439
REMARK  193  A    between atoms: _442  and  _444
REMARK  194  A    between atoms: _444  and  _445
REMARK  195  A    between atoms: _447  and  _449
REMARK  196  A    between atoms: _449  and  _450
REMARK  197  A    between atoms: _449  and  _452
REMARK  198  A    between atoms: _452  and  _453
REMARK  199  A    between atoms: _458  and  _459
REMARK  200  A    between atoms: _461  and  _463
REMARK  201  A    between atoms: _463  and  _464
REMARK  202  A    between atoms: _467  and  _469
REMARK  203  A    between atoms: _469  and  _470
REMARK  204  A    between atoms: _469  and  _472
REMARK  205  A    between atoms: _472  and  _473
REMARK  206  A    between atoms: _476  and  _478
REMARK  207  A    between atoms: _478  and  _479
REMARK  208  A    between atoms: _478  and  _481
REMARK  209  A    between atoms: _481  and  _482
REMARK  210  A    between atoms: _482  and  _483
REMARK  211  A    between atoms: _483  and  MG_588
REMARK  212  A    between atoms: _485  and  _487
REMARK  213  A    between atoms: _487  and  _488
REMARK  214  A    between atoms: _487  and  _490
REMARK  215  A    between atoms: _490  and  _491
REMARK  216  A    between atoms: _496  and  _497
REMARK  217  A    between atoms: _499  and  _501
REMARK  218  A    between atoms: _501  and  _502
REMARK  219  A    between atoms: _501  and  _504
REMARK  220  A    between atoms: _504  and  _505
REMARK  221  A    between atoms: _510  and  _512
REMARK  222  A    between atoms: _512  and  _513
REMARK  223  A    between atoms: _512  and  _515
REMARK  224  A    between atoms: _515  and  _516
REMARK  225  A    between atoms: _516  and  _517
REMARK  226  A    between atoms: _520  and  _522
REMARK  227  A    between atoms: _522  and  _523
REMARK  228  A    between atoms: _522  and  _525
REMARK  229  A    between atoms: _525  and  _526
REMARK  230  A    between atoms: _531  and  _532
REMARK  231  A    between atoms: _534  and  _536
REMARK  232  A    between atoms: _536  and  _537
REMARK  233  A    between atoms: _536  and  _539
REMARK  234  A    between atoms: _539  and  _540
REMARK  235  A    between atoms: _546  and  _548
REMARK  236  A    between atoms: _548  and  _549
REMARK  237  A    between atoms: _548  and  _551
REMARK  238  A    between atoms: _551  and  _552
REMARK  239  A    between atoms: _552  and  _553
REMARK  240  A    between atoms: _553  and  _554
REMARK  241  A    between atoms: _563  and  _565
REMARK  242  A    between atoms: _565  and  _566
REMARK  243  A    between atoms: _565  and  _568
REMARK  244  A    between atoms: _571  and  _573
REMARK  245  A    between atoms: _573  and  _574
REMARK  246  A    between atoms: _573  and  _576
REMARK  247  A    between atoms: _578  and  _580
REMARK  248  A    between atoms: _580  and  _581
REMARK  249  A    between atoms: _580  and  _583
REMARK  250  A    between atoms: _583  and  _584
REMARK                            x       y       z     vdW  Elec       q    Type
REMARK                         _______ _______ _______ _____ _____    ______ ____
ROOT
ATOM      1  O   HOH     1       6.998  75.934  47.145  0.00  0.00    +0.000 OA
ENDROOT
TORSDOF 0
REMARK  Name = ../refined-set-2016/1bzy/1bzy_pocket.pdb
REMARK  250 active torsions:
REMARK  status: ('A' for Active; 'I' for Inactive)
REMARK    1  A    between atoms: _1  and  _3
REMARK    2  A    between atoms: _3  and  _4
REMARK    3  A    between atoms: _3  and  _6
REMARK    4  A    between atoms: _9  and  _11
REMARK    5  A    between atoms: _11  and  _12
REMARK    6  A    between atoms: _11  and  _14
REMARK    7  A    between atoms: _14  and  _15
REMARK    8  A    between atoms: _18  and  _20
REMARK    9  A    between atoms: _20  and  _21
REMARK   10  A    between atoms: _20  and  _23
REMARK   11  A    between atoms: _23  and  _24
REMARK   12  A    between atoms: _24  and  _25
REMARK   13  A    between atoms: _25  and  _26
REMARK   14  A    between atoms: _26  and  _27
REMARK   15  A    between atoms: _31  and  _33
REMARK   16  A    between atoms: _33  and  _34
REMARK   17  A    between atoms: _36  and  _38
REMARK   18  A    between atoms: _38  and  _39
REMARK   19  A    between atoms: _41  and  _43
REMARK   20  A    between atoms: _43  and  _44
REMARK   21  A    between atoms: _43  and  _46
REMARK   22  A    between atoms: _46  and  _47
REMARK   23  A    between atoms: _52  and  _53
REMARK   24  A    between atoms: _55  and  _57
REMARK   25  A    between atoms: _57  and  _58
REMARK   26  A    between atoms: _57  and  _60
REMARK   27  A    between atoms: _60  and  _61
REMARK   28  A    between atoms: _64  and  _66
REMARK   29  A    between atoms: _66  and  _67
REMARK   30  A    between atoms: _66  and  _69
REMARK   31  A    between atoms: _69  and  _70
REMARK   32  A    between atoms: _70  and  _71
REMARK   33  A    between atoms: _71  and  _72
REMARK   34  A    between atoms: _72  and  _73
REMARK   35  A    between atoms: _77  and  _79
REMARK   36  A    between atoms: _79  and  _80
REMARK   37  A    between atoms: _79  and  _82
REMARK   38  A    between atoms: _82  and  _83
REMARK   39  A    between atoms: _85  and  _87
REMARK   40  A    between atoms: _87  and  _88
REMARK   41  A    between atoms: _87  and  _90
REMARK   42  A    between atoms: _90  and  _91
REMARK   43  A    between atoms: _96  and  _97
REMARK   44  A    between atoms: _99  and  _101
REMARK   45  A    between atoms: _101  and  _102
REMARK   46  A    between atoms: _101  and  _104
REMARK   47  A    between atoms: _106  and  _108
REMARK   48  A    between atoms: _108  and  _109
REMARK   49  A    between atoms: _108  and  _111
REMARK   50  A    between atoms: _111  and  _112
REMARK   51  A    between atoms: _117  and  _119
REMARK   52  A    between atoms: _119  and  _120
REMARK   53  A    between atoms: _119  and  _122
REMARK   54  A    between atoms: _122  and  _123
REMARK   55  A    between atoms: _126  and  _128
REMARK   56  A    between atoms: _128  and  _129
REMARK   57  A    between atoms: _128  and  _131
REMARK   58  A    between atoms: _131  and  _132
REMARK   59  A    between atoms: _132  and  _133
REMARK   60  A    between atoms: _138  and  _140
REMARK   61  A    between atoms: _140  and  _141
REMARK   62  A    between atoms: _140  and  _143
REMARK   63  A    between atoms: _143  and  _144
REMARK   64  A    between atoms: _146  and  _148
REMARK   65  A    between atoms: _148  and  _149
REMARK   66  A    between atoms: _148  and  _151
REMARK   67  A    between atoms: _151  and  _152
REMARK   68  A    between atoms: _155  and  _157
REMARK   69  A    between atoms: _157  and  _158
REMARK   70  A    between atoms: _160  and  _162
REMARK   71  A    between atoms: _162  and  _163
REMARK   72  A    between atoms: _162  and  _165
REMARK   73  A    between atoms: _165  and  _166
REMARK   74  A    between atoms: _169  and  _171
REMARK   75  A    between atoms: _171  and  _172
REMARK   76  A    between atoms: _171  and  _174
REMARK   77  A    between atoms: _174  and  _175
REMARK   78  A    between atoms: _175  and  _176
REMARK   79  A    between atoms: _179  and  _181
REMARK   80  A    between atoms: _181  and  _182
REMARK   81  A    between atoms: _181  and  _184
REMARK   82  A    between atoms: _184  and  _185
REMARK   83  A    between atoms: _188  and  _190
REMARK   84  A    between atoms: _190  and  _191
REMARK   85  A    between atoms: _190  and  _193
REMARK   86  A    between atoms: _193  and  _194
REMARK   87  A    between atoms: _197  and  _199
REMARK   88  A    between atoms: _199  and  _200
REMARK   89  A    between atoms: _199  and  _202
REMARK   90  A    between atoms: _202  and  _203
REMARK   91  A    between atoms: _206  and  _208
REMARK   92  A    between atoms: _208  and  _209
REMARK   93  A    between atoms: _208  and  _211
REMARK   94  A    between atoms: _211  and  _212
REMARK   95  A    between atoms: _215  and  _217
REMARK   96  A    between atoms: _217  and  _218
REMARK   97  A    between atoms: _217  and  _220
REMARK   98  A    between atoms: _220  and  _221
REMARK   99  A    between atoms: _224  and  _226
REMARK  100  A    between atoms: _226  and  _227
REMARK  101  A    between atoms: _229  and  _231
REMARK  102  A    between atoms: _231  and  _232
REMARK  103  A    between atoms: _231  and  _234
REMARK  104  A    between atoms: _234  and  _235
REMARK  105  A    between atoms: _235  and  _236
REMARK  106  A    between atoms: _236  and  _237
REMARK  107  A    between atoms: _237  and  _238
REMARK  108  A    between atoms: _242  and  _244
REMARK  109  A    between atoms: _244  and  _245
REMARK  110  A    between atoms: _244  and  _247
REMARK  111  A    between atoms: _247  and  _248
REMARK  112  A    between atoms: _251  and  _253
REMARK  113  A    between atoms: _253  and  _254
REMARK  114  A    between atoms: _253  and  _256
REMARK  115  A    between atoms: _256  and  _257
REMARK  116  A    between atoms: _257  and  _258
REMARK  117  A    between atoms: _260  and  _262
REMARK  118  A    between atoms: _262  and  _263
REMARK  119  A    between atoms: _262  and  _265
REMARK  120  A    between atoms: _265  and  _266
REMARK  121  A    between atoms: _266  and  _267
REMARK  122  A    between atoms: _272  and  _274
REMARK  123  A    between atoms: _274  and  _275
REMARK  124  A    between atoms: _274  and  _277
REMARK  125  A    between atoms: _277  and  _278
REMARK  126  A    between atoms: _281  and  _283
REMARK  127  A    between atoms: _283  and  _284
REMARK  128  A    between atoms: _283  and  _286
REMARK  129  A    between atoms: _286  and  _287
REMARK  130  A    between atoms: _290  and  _292
REMARK  131  A    between atoms: _292  and  _293
REMARK  132  A    between atoms: _292  and  _295
REMARK  133  A    between atoms: _295  and  _296
REMARK  134  A    between atoms: _298  and  _300
REMARK  135  A    between atoms: _300  and  _301
REMARK  136  A    between atoms: _300  and  _303
REMARK  137  A    between atoms: _303  and  _304
REMARK  138  A    between atoms: _307  and  _309
REMARK  139  A    between atoms: _309  and  _310
REMARK  140  A    between atoms: _309  and  _312
REMARK  141  A    between atoms: _312  and  _313
REMARK  142  A    between atoms: _313  and  _314
REMARK  143  A    between atoms: _314  and  _315
REMARK  144  A    between atoms: _315  and  _316
REMARK  145  A    between atoms: _320  and  _322
REMARK  146  A    between atoms: _322  and  _323
REMARK  147  A    between atoms: _322  and  _325
REMARK  148  A    between atoms: _325  and  _326
REMARK  149  A    between atoms: _329  and  _331
REMARK  150  A    between atoms: _331  and  _332
REMARK  151  A    between atoms: _331  and  _334
REMARK  152  A    between atoms: _334  and  _335
REMARK  153  A    between atoms: _335  and  _336
REMARK  154  A    between atoms: _336  and  _337
REMARK  155  A    between atoms: _346  and  _348
REMARK  156  A    between atoms: _348  and  _349
REMARK  157  A    between atoms: _348  and  _351
REMARK  158  A    between atoms: _351  and  _352
REMARK  159  A    between atoms: _354  and  _356
REMARK  160  A    between atoms: _356  and  _357
REMARK  161  A    between atoms: _356  and  _359
REMARK  162  A    between atoms: _362  and  _364
REMARK  163  A    between atoms: _364  and  _365
REMARK  164  A    between atoms: _364  and  _367
REMARK  165  A    between atoms: _367  and  _368
REMARK  166  A    between atoms: _373  and  _374
REMARK  167  A    between atoms: _376  and  _378
REMARK  168  A    between atoms: _378  and  _379
REMARK  169  A    between atoms: _378  and  _381
REMARK  170  A    between atoms: _381  and  _382
REMARK  171  A    between atoms: _386  and  _387
REMARK  172  A    between atoms: _392  and  _394
REMARK  173  A    between atoms: _394  and  _395
REMARK  174  A    between atoms: _394  and  _397
REMARK  175  A    between atoms: _397  and  _398
REMARK  176  A    between atoms: _401  and  _403
REMARK  177  A    between atoms: _403  and  _404
REMARK  178  A    between atoms: _403  and  _406
REMARK  179  A    between atoms: _406  and  _407
REMARK  180  A    between atoms: _407  and  _408
REMARK  181  A    between atoms: _408  and  _409
REMARK  182  A    between atoms: _409  and  _410
REMARK  183  A    between atoms: _414  and  _416
REMARK  184  A    between atoms: _416  and  _417
REMARK  185  A    between atoms: _416  and  _419
REMARK  186  A    between atoms: _419  and  _420
REMARK  187  A    between atoms: _426  and  _428
REMARK  188  A    between atoms: _428  and  _429
REMARK  189  A    between atoms: _428  and  _431
REMARK  190  A    between atoms: _434  and  _436
REMARK  191  A    between atoms: _436  and  _437
REMARK  192  A    between atoms: _436  and  _439
REMARK  193  A    between atoms: _442  and  _444
REMARK  194  A    between atoms: _444  and  _445
REMARK  195  A    between atoms: _447  and  _449
REMARK  196  A    between atoms: _449  and  _450
REMARK  197  A    between atoms: _449  and  _452
REMARK  198  A    between atoms: _452  and  _453
REMARK  199  A    between atoms: _458  and  _459
REMARK  200  A    between atoms: _461  and  _463
REMARK  201  A    between atoms: _463  and  _464
REMARK  202  A    between atoms: _467  and  _469
REMARK  203  A    between atoms: _469  and  _470
REMARK  204  A    between atoms: _469  and  _472
REMARK  205  A    between atoms: _472  and  _473
REMARK  206  A    between atoms: _476  and  _478
REMARK  207  A    between atoms: _478  and  _479
REMARK  208  A    between atoms: _478  and  _481
REMARK  209  A    between atoms: _481  and  _482
REMARK  210  A    between atoms: _482  and  _483
REMARK  211  A    between atoms: _483  and  MG_588
REMARK  212  A    between atoms: _485  and  _487
REMARK  213  A    between atoms: _487  and  _488
REMARK  214  A    between atoms: _487  and  _490
REMARK  215  A    between atoms: _490  and  _491
REMARK  216  A    between atoms: _496  and  _497
REMARK  217  A    between atoms: _499  and  _501
REMARK  218  A    between atoms: _501  and  _502
REMARK  219  A    between atoms: _501  and  _504
REMARK  220  A    between atoms: _504  and  _505
REMARK  221  A    between atoms: _510  and  _512
REMARK  222  A    between atoms: _512  and  _513
REMARK  223  A    between atoms: _512  and  _515
REMARK  224  A    between atoms: _515  and  _516
REMARK  225  A    between atoms: _516  and  _517
REMARK  226  A    between atoms: _520  and  _522
REMARK  227  A    between atoms: _522  and  _523
REMARK  228  A    between atoms: _522  and  _525
REMARK  229  A    between atoms: _525  and  _526
REMARK  230  A    between atoms: _531  and  _532
REMARK  231  A    between atoms: _534  and  _536
REMARK  232  A    between atoms: _536  and  _537
REMARK  233  A    between atoms: _536  and  _539
REMARK  234  A    between atoms: _539  and  _540
REMARK  235  A    between atoms: _546  and  _548
REMARK  236  A    between atoms: _548  and  _549
REMARK  237  A    between atoms: _548  and  _551
REMARK  238  A    between atoms: _551  and  _552
REMARK  239  A    between atoms: _552  and  _553
REMARK  240  A    between atoms: _553  and  _554
REMARK  241  A    between atoms: _563  and  _565
REMARK  242  A    between atoms: _565  and  _566
REMARK  243  A    between atoms: _565  and  _568
REMARK  244  A    between atoms: _571  and  _573
REMARK  245  A    between atoms: _573  and  _574
REMARK  246  A    between atoms: _573  and  _576
REMARK  247  A    between atoms: _578  and  _580
REMARK  248  A    between atoms: _580  and  _581
REMARK  249  A    between atoms: _580  and  _583
REMARK  250  A    between atoms: _583  and  _584
REMARK                            x       y       z     vdW  Elec       q    Type
REMARK                         _______ _______ _______ _____ _____    ______ ____
ROOT
ATOM      1  O   HOH     1       2.368  86.692  40.849  0.00  0.00    +0.000 OA
ENDROOT
TORSDOF 0
REMARK  Name = ../refined-set-2016/1bzy/1bzy_pocket.pdb
REMARK  250 active torsions:
REMARK  status: ('A' for Active; 'I' for Inactive)
REMARK    1  A    between atoms: _1  and  _3
REMARK    2  A    between atoms: _3  and  _4
REMARK    3  A    between atoms: _3  and  _6
REMARK    4  A    between atoms: _9  and  _11
REMARK    5  A    between atoms: _11  and  _12
REMARK    6  A    between atoms: _11  and  _14
REMARK    7  A    between atoms: _14  and  _15
REMARK    8  A    between atoms: _18  and  _20
REMARK    9  A    between atoms: _20  and  _21
REMARK   10  A    between atoms: _20  and  _23
REMARK   11  A    between atoms: _23  and  _24
REMARK   12  A    between atoms: _24  and  _25
REMARK   13  A    between atoms: _25  and  _26
REMARK   14  A    between atoms: _26  and  _27
REMARK   15  A    between atoms: _31  and  _33
REMARK   16  A    between atoms: _33  and  _34
REMARK   17  A    between atoms: _36  and  _38
REMARK   18  A    between atoms: _38  and  _39
REMARK   19  A    between atoms: _41  and  _43
REMARK   20  A    between atoms: _43  and  _44
REMARK   21  A    between atoms: _43  and  _46
REMARK   22  A    between atoms: _46  and  _47
REMARK   23  A    between atoms: _52  and  _53
REMARK   24  A    between atoms: _55  and  _57
REMARK   25  A    between atoms: _57  and  _58
REMARK   26  A    between atoms: _57  and  _60
REMARK   27  A    between atoms: _60  and  _61
REMARK   28  A    between atoms: _64  and  _66
REMARK   29  A    between atoms: _66  and  _67
REMARK   30  A    between atoms: _66  and  _69
REMARK   31  A    between atoms: _69  and  _70
REMARK   32  A    between atoms: _70  and  _71
REMARK   33  A    between atoms: _71  and  _72
REMARK   34  A    between atoms: _72  and  _73
REMARK   35  A    between atoms: _77  and  _79
REMARK   36  A    between atoms: _79  and  _80
REMARK   37  A    between atoms: _79  and  _82
REMARK   38  A    between atoms: _82  and  _83
REMARK   39  A    between atoms: _85  and  _87
REMARK   40  A    between atoms: _87  and  _88
REMARK   41  A    between atoms: _87  and  _90
REMARK   42  A    between atoms: _90  and  _91
REMARK   43  A    between atoms: _96  and  _97
REMARK   44  A    between atoms: _99  and  _101
REMARK   45  A    between atoms: _101  and  _102
REMARK   46  A    between atoms: _101  and  _104
REMARK   47  A    between atoms: _106  and  _108
REMARK   48  A    between atoms: _108  and  _109
REMARK   49  A    between atoms: _108  and  _111
REMARK   50  A    between atoms: _111  and  _112
REMARK   51  A    between atoms: _117  and  _119
REMARK   52  A    between atoms: _119  and  _120
REMARK   53  A    between atoms: _119  and  _122
REMARK   54  A    between atoms: _122  and  _123
REMARK   55  A    between atoms: _126  and  _128
REMARK   56  A    between atoms: _128  and  _129
REMARK   57  A    between atoms: _128  and  _131
REMARK   58  A    between atoms: _131  and  _132
REMARK   59  A    between atoms: _132  and  _133
REMARK   60  A    between atoms: _138  and  _140
REMARK   61  A    between atoms: _140  and  _141
REMARK   62  A    between atoms: _140  and  _143
REMARK   63  A    between atoms: _143  and  _144
REMARK   64  A    between atoms: _146  and  _148
REMARK   65  A    between atoms: _148  and  _149
REMARK   66  A    between atoms: _148  and  _151
REMARK   67  A    between atoms: _151  and  _152
REMARK   68  A    between atoms: _155  and  _157
REMARK   69  A    between atoms: _157  and  _158
REMARK   70  A    between atoms: _160  and  _162
REMARK   71  A    between atoms: _162  and  _163
REMARK   72  A    between atoms: _162  and  _165
REMARK   73  A    between atoms: _165  and  _166
REMARK   74  A    between atoms: _169  and  _171
REMARK   75  A    between atoms: _171  and  _172
REMARK   76  A    between atoms: _171  and  _174
REMARK   77  A    between atoms: _174  and  _175
REMARK   78  A    between atoms: _175  and  _176
REMARK   79  A    between atoms: _179  and  _181
REMARK   80  A    between atoms: _181  and  _182
REMARK   81  A    between atoms: _181  and  _184
REMARK   82  A    between atoms: _184  and  _185
REMARK   83  A    between atoms: _188  and  _190
REMARK   84  A    between atoms: _190  and  _191
REMARK   85  A    between atoms: _190  and  _193
REMARK   86  A    between atoms: _193  and  _194
REMARK   87  A    between atoms: _197  and  _199
REMARK   88  A    between atoms: _199  and  _200
REMARK   89  A    between atoms: _199  and  _202
REMARK   90  A    between atoms: _202  and  _203
REMARK   91  A    between atoms: _206  and  _208
REMARK   92  A    between atoms: _208  and  _209
REMARK   93  A    between atoms: _208  and  _211
REMARK   94  A    between atoms: _211  and  _212
REMARK   95  A    between atoms: _215  and  _217
REMARK   96  A    between atoms: _217  and  _218
REMARK   97  A    between atoms: _217  and  _220
REMARK   98  A    between atoms: _220  and  _221
REMARK   99  A    between atoms: _224  and  _226
REMARK  100  A    between atoms: _226  and  _227
REMARK  101  A    between atoms: _229  and  _231
REMARK  102  A    between atoms: _231  and  _232
REMARK  103  A    between atoms: _231  and  _234
REMARK  104  A    between atoms: _234  and  _235
REMARK  105  A    between atoms: _235  and  _236
REMARK  106  A    between atoms: _236  and  _237
REMARK  107  A    between atoms: _237  and  _238
REMARK  108  A    between atoms: _242  and  _244
REMARK  109  A    between atoms: _244  and  _245
REMARK  110  A    between atoms: _244  and  _247
REMARK  111  A    between atoms: _247  and  _248
REMARK  112  A    between atoms: _251  and  _253
REMARK  113  A    between atoms: _253  and  _254
REMARK  114  A    between atoms: _253  and  _256
REMARK  115  A    between atoms: _256  and  _257
REMARK  116  A    between atoms: _257  and  _258
REMARK  117  A    between atoms: _260  and  _262
REMARK  118  A    between atoms: _262  and  _263
REMARK  119  A    between atoms: _262  and  _265
REMARK  120  A    between atoms: _265  and  _266
REMARK  121  A    between atoms: _266  and  _267
REMARK  122  A    between atoms: _272  and  _274
REMARK  123  A    between atoms: _274  and  _275
REMARK  124  A    between atoms: _274  and  _277
REMARK  125  A    between atoms: _277  and  _278
REMARK  126  A    between atoms: _281  and  _283
REMARK  127  A    between atoms: _283  and  _284
REMARK  128  A    between atoms: _283  and  _286
REMARK  129  A    between atoms: _286  and  _287
REMARK  130  A    between atoms: _290  and  _292
REMARK  131  A    between atoms: _292  and  _293
REMARK  132  A    between atoms: _292  and  _295
REMARK  133  A    between atoms: _295  and  _296
REMARK  134  A    between atoms: _298  and  _300
REMARK  135  A    between atoms: _300  and  _301
REMARK  136  A    between atoms: _300  and  _303
REMARK  137  A    between atoms: _303  and  _304
REMARK  138  A    between atoms: _307  and  _309
REMARK  139  A    between atoms: _309  and  _310
REMARK  140  A    between atoms: _309  and  _312
REMARK  141  A    between atoms: _312  and  _313
REMARK  142  A    between atoms: _313  and  _314
REMARK  143  A    between atoms: _314  and  _315
REMARK  144  A    between atoms: _315  and  _316
REMARK  145  A    between atoms: _320  and  _322
REMARK  146  A    between atoms: _322  and  _323
REMARK  147  A    between atoms: _322  and  _325
REMARK  148  A    between atoms: _325  and  _326
REMARK  149  A    between atoms: _329  and  _331
REMARK  150  A    between atoms: _331  and  _332
REMARK  151  A    between atoms: _331  and  _334
REMARK  152  A    between atoms: _334  and  _335
REMARK  153  A    between atoms: _335  and  _336
REMARK  154  A    between atoms: _336  and  _337
REMARK  155  A    between atoms: _346  and  _348
REMARK  156  A    between atoms: _348  and  _349
REMARK  157  A    between atoms: _348  and  _351
REMARK  158  A    between atoms: _351  and  _352
REMARK  159  A    between atoms: _354  and  _356
REMARK  160  A    between atoms: _356  and  _357
REMARK  161  A    between atoms: _356  and  _359
REMARK  162  A    between atoms: _362  and  _364
REMARK  163  A    between atoms: _364  and  _365
REMARK  164  A    between atoms: _364  and  _367
REMARK  165  A    between atoms: _367  and  _368
REMARK  166  A    between atoms: _373  and  _374
REMARK  167  A    between atoms: _376  and  _378
REMARK  168  A    between atoms: _378  and  _379
REMARK  169  A    between atoms: _378  and  _381
REMARK  170  A    between atoms: _381  and  _382
REMARK  171  A    between atoms: _386  and  _387
REMARK  172  A    between atoms: _392  and  _394
REMARK  173  A    between atoms: _394  and  _395
REMARK  174  A    between atoms: _394  and  _397
REMARK  175  A    between atoms: _397  and  _398
REMARK  176  A    between atoms: _401  and  _403
REMARK  177  A    between atoms: _403  and  _404
REMARK  178  A    between atoms: _403  and  _406
REMARK  179  A    between atoms: _406  and  _407
REMARK  180  A    between atoms: _407  and  _408
REMARK  181  A    between atoms: _408  and  _409
REMARK  182  A    between atoms: _409  and  _410
REMARK  183  A    between atoms: _414  and  _416
REMARK  184  A    between atoms: _416  and  _417
REMARK  185  A    between atoms: _416  and  _419
REMARK  186  A    between atoms: _419  and  _420
REMARK  187  A    between atoms: _426  and  _428
REMARK  188  A    between atoms: _428  and  _429
REMARK  189  A    between atoms: _428  and  _431
REMARK  190  A    between atoms: _434  and  _436
REMARK  191  A    between atoms: _436  and  _437
REMARK  192  A    between atoms: _436  and  _439
REMARK  193  A    between atoms: _442  and  _444
REMARK  194  A    between atoms: _444  and  _445
REMARK  195  A    between atoms: _447  and  _449
REMARK  196  A    between atoms: _449  and  _450
REMARK  197  A    between atoms: _449  and  _452
REMARK  198  A    between atoms: _452  and  _453
REMARK  199  A    between atoms: _458  and  _459
REMARK  200  A    between atoms: _461  and  _463
REMARK  201  A    between atoms: _463  and  _464
REMARK  202  A    between atoms: _467  and  _469
REMARK  203  A    between atoms: _469  and  _470
REMARK  204  A    between atoms: _469  and  _472
REMARK  205  A    between atoms: _472  and  _473
REMARK  206  A    between atoms: _476  and  _478
REMARK  207  A    between atoms: _478  and  _479
REMARK  208  A    between atoms: _478  and  _481
REMARK  209  A    between atoms: _481  and  _482
REMARK  210  A    between atoms: _482  and  _483
REMARK  211  A    between atoms: _483  and  MG_588
REMARK  212  A    between atoms: _485  and  _487
REMARK  213  A    between atoms: _487  and  _488
REMARK  214  A    between atoms: _487  and  _490
REMARK  215  A    between atoms: _490  and  _491
REMARK  216  A    between atoms: _496  and  _497
REMARK  217  A    between atoms: _499  and  _501
REMARK  218  A    between atoms: _501  and  _502
REMARK  219  A    between atoms: _501  and  _504
REMARK  220  A    between atoms: _504  and  _505
REMARK  221  A    between atoms: _510  and  _512
REMARK  222  A    between atoms: _512  and  _513
REMARK  223  A    between atoms: _512  and  _515
REMARK  224  A    between atoms: _515  and  _516
REMARK  225  A    between atoms: _516  and  _517
REMARK  226  A    between atoms: _520  and  _522
REMARK  227  A    between atoms: _522  and  _523
REMARK  228  A    between atoms: _522  and  _525
REMARK  229  A    between atoms: _525  and  _526
REMARK  230  A    between atoms: _531  and  _532
REMARK  231  A    between atoms: _534  and  _536
REMARK  232  A    between atoms: _536  and  _537
REMARK  233  A    between atoms: _536  and  _539
REMARK  234  A    between atoms: _539  and  _540
REMARK  235  A    between atoms: _546  and  _548
REMARK  236  A    between atoms: _548  and  _549
REMARK  237  A    between atoms: _548  and  _551
REMARK  238  A    between atoms: _551  and  _552
REMARK  239  A    between atoms: _552  and  _553
REMARK  240  A    between atoms: _553  and  _554
REMARK  241  A    between atoms: _563  and  _565
REMARK  242  A    between atoms: _565  and  _566
REMARK  243  A    between atoms: _565  and  _568
REMARK  244  A    between atoms: _571  and  _573
REMARK  245  A    between atoms: _573  and  _574
REMARK  246  A    between atoms: _573  and  _576
REMARK  247  A    between atoms: _578  and  _580
REMARK  248  A    between atoms: _580  and  _581
REMARK  249  A    between atoms: _580  and  _583
REMARK  250  A    between atoms: _583  and  _584
REMARK                            x       y       z     vdW  Elec       q    Type
REMARK                         _______ _______ _______ _____ _____    ______ ____
ROOT
ATOM      1  O   HOH     1      10.909  82.811  37.851  0.00  0.00    +0.000 OA
ENDROOT
TORSDOF 0
REMARK  Name = ../refined-set-2016/1bzy/1bzy_pocket.pdb
REMARK  250 active torsions:
REMARK  status: ('A' for Active; 'I' for Inactive)
REMARK    1  A    between atoms: _1  and  _3
REMARK    2  A    between atoms: _3  and  _4
REMARK    3  A    between atoms: _3  and  _6
REMARK    4  A    between atoms: _9  and  _11
REMARK    5  A    between atoms: _11  and  _12
REMARK    6  A    between atoms: _11  and  _14
REMARK    7  A    between atoms: _14  and  _15
REMARK    8  A    between atoms: _18  and  _20
REMARK    9  A    between atoms: _20  and  _21
REMARK   10  A    between atoms: _20  and  _23
REMARK   11  A    between atoms: _23  and  _24
REMARK   12  A    between atoms: _24  and  _25
REMARK   13  A    between atoms: _25  and  _26
REMARK   14  A    between atoms: _26  and  _27
REMARK   15  A    between atoms: _31  and  _33
REMARK   16  A    between atoms: _33  and  _34
REMARK   17  A    between atoms: _36  and  _38
REMARK   18  A    between atoms: _38  and  _39
REMARK   19  A    between atoms: _41  and  _43
REMARK   20  A    between atoms: _43  and  _44
REMARK   21  A    between atoms: _43  and  _46
REMARK   22  A    between atoms: _46  and  _47
REMARK   23  A    between atoms: _52  and  _53
REMARK   24  A    between atoms: _55  and  _57
REMARK   25  A    between atoms: _57  and  _58
REMARK   26  A    between atoms: _57  and  _60
REMARK   27  A    between atoms: _60  and  _61
REMARK   28  A    between atoms: _64  and  _66
REMARK   29  A    between atoms: _66  and  _67
REMARK   30  A    between atoms: _66  and  _69
REMARK   31  A    between atoms: _69  and  _70
REMARK   32  A    between atoms: _70  and  _71
REMARK   33  A    between atoms: _71  and  _72
REMARK   34  A    between atoms: _72  and  _73
REMARK   35  A    between atoms: _77  and  _79
REMARK   36  A    between atoms: _79  and  _80
REMARK   37  A    between atoms: _79  and  _82
REMARK   38  A    between atoms: _82  and  _83
REMARK   39  A    between atoms: _85  and  _87
REMARK   40  A    between atoms: _87  and  _88
REMARK   41  A    between atoms: _87  and  _90
REMARK   42  A    between atoms: _90  and  _91
REMARK   43  A    between atoms: _96  and  _97
REMARK   44  A    between atoms: _99  and  _101
REMARK   45  A    between atoms: _101  and  _102
REMARK   46  A    between atoms: _101  and  _104
REMARK   47  A    between atoms: _106  and  _108
REMARK   48  A    between atoms: _108  and  _109
REMARK   49  A    between atoms: _108  and  _111
REMARK   50  A    between atoms: _111  and  _112
REMARK   51  A    between atoms: _117  and  _119
REMARK   52  A    between atoms: _119  and  _120
REMARK   53  A    between atoms: _119  and  _122
REMARK   54  A    between atoms: _122  and  _123
REMARK   55  A    between atoms: _126  and  _128
REMARK   56  A    between atoms: _128  and  _129
REMARK   57  A    between atoms: _128  and  _131
REMARK   58  A    between atoms: _131  and  _132
REMARK   59  A    between atoms: _132  and  _133
REMARK   60  A    between atoms: _138  and  _140
REMARK   61  A    between atoms: _140  and  _141
REMARK   62  A    between atoms: _140  and  _143
REMARK   63  A    between atoms: _143  and  _144
REMARK   64  A    between atoms: _146  and  _148
REMARK   65  A    between atoms: _148  and  _149
REMARK   66  A    between atoms: _148  and  _151
REMARK   67  A    between atoms: _151  and  _152
REMARK   68  A    between atoms: _155  and  _157
REMARK   69  A    between atoms: _157  and  _158
REMARK   70  A    between atoms: _160  and  _162
REMARK   71  A    between atoms: _162  and  _163
REMARK   72  A    between atoms: _162  and  _165
REMARK   73  A    between atoms: _165  and  _166
REMARK   74  A    between atoms: _169  and  _171
REMARK   75  A    between atoms: _171  and  _172
REMARK   76  A    between atoms: _171  and  _174
REMARK   77  A    between atoms: _174  and  _175
REMARK   78  A    between atoms: _175  and  _176
REMARK   79  A    between atoms: _179  and  _181
REMARK   80  A    between atoms: _181  and  _182
REMARK   81  A    between atoms: _181  and  _184
REMARK   82  A    between atoms: _184  and  _185
REMARK   83  A    between atoms: _188  and  _190
REMARK   84  A    between atoms: _190  and  _191
REMARK   85  A    between atoms: _190  and  _193
REMARK   86  A    between atoms: _193  and  _194
REMARK   87  A    between atoms: _197  and  _199
REMARK   88  A    between atoms: _199  and  _200
REMARK   89  A    between atoms: _199  and  _202
REMARK   90  A    between atoms: _202  and  _203
REMARK   91  A    between atoms: _206  and  _208
REMARK   92  A    between atoms: _208  and  _209
REMARK   93  A    between atoms: _208  and  _211
REMARK   94  A    between atoms: _211  and  _212
REMARK   95  A    between atoms: _215  and  _217
REMARK   96  A    between atoms: _217  and  _218
REMARK   97  A    between atoms: _217  and  _220
REMARK   98  A    between atoms: _220  and  _221
REMARK   99  A    between atoms: _224  and  _226
REMARK  100  A    between atoms: _226  and  _227
REMARK  101  A    between atoms: _229  and  _231
REMARK  102  A    between atoms: _231  and  _232
REMARK  103  A    between atoms: _231  and  _234
REMARK  104  A    between atoms: _234  and  _235
REMARK  105  A    between atoms: _235  and  _236
REMARK  106  A    between atoms: _236  and  _237
REMARK  107  A    between atoms: _237  and  _238
REMARK  108  A    between atoms: _242  and  _244
REMARK  109  A    between atoms: _244  and  _245
REMARK  110  A    between atoms: _244  and  _247
REMARK  111  A    between atoms: _247  and  _248
REMARK  112  A    between atoms: _251  and  _253
REMARK  113  A    between atoms: _253  and  _254
REMARK  114  A    between atoms: _253  and  _256
REMARK  115  A    between atoms: _256  and  _257
REMARK  116  A    between atoms: _257  and  _258
REMARK  117  A    between atoms: _260  and  _262
REMARK  118  A    between atoms: _262  and  _263
REMARK  119  A    between atoms: _262  and  _265
REMARK  120  A    between atoms: _265  and  _266
REMARK  121  A    between atoms: _266  and  _267
REMARK  122  A    between atoms: _272  and  _274
REMARK  123  A    between atoms: _274  and  _275
REMARK  124  A    between atoms: _274  and  _277
REMARK  125  A    between atoms: _277  and  _278
REMARK  126  A    between atoms: _281  and  _283
REMARK  127  A    between atoms: _283  and  _284
REMARK  128  A    between atoms: _283  and  _286
REMARK  129  A    between atoms: _286  and  _287
REMARK  130  A    between atoms: _290  and  _292
REMARK  131  A    between atoms: _292  and  _293
REMARK  132  A    between atoms: _292  and  _295
REMARK  133  A    between atoms: _295  and  _296
REMARK  134  A    between atoms: _298  and  _300
REMARK  135  A    between atoms: _300  and  _301
REMARK  136  A    between atoms: _300  and  _303
REMARK  137  A    between atoms: _303  and  _304
REMARK  138  A    between atoms: _307  and  _309
REMARK  139  A    between atoms: _309  and  _310
REMARK  140  A    between atoms: _309  and  _312
REMARK  141  A    between atoms: _312  and  _313
REMARK  142  A    between atoms: _313  and  _314
REMARK  143  A    between atoms: _314  and  _315
REMARK  144  A    between atoms: _315  and  _316
REMARK  145  A    between atoms: _320  and  _322
REMARK  146  A    between atoms: _322  and  _323
REMARK  147  A    between atoms: _322  and  _325
REMARK  148  A    between atoms: _325  and  _326
REMARK  149  A    between atoms: _329  and  _331
REMARK  150  A    between atoms: _331  and  _332
REMARK  151  A    between atoms: _331  and  _334
REMARK  152  A    between atoms: _334  and  _335
REMARK  153  A    between atoms: _335  and  _336
REMARK  154  A    between atoms: _336  and  _337
REMARK  155  A    between atoms: _346  and  _348
REMARK  156  A    between atoms: _348  and  _349
REMARK  157  A    between atoms: _348  and  _351
REMARK  158  A    between atoms: _351  and  _352
REMARK  159  A    between atoms: _354  and  _356
REMARK  160  A    between atoms: _356  and  _357
REMARK  161  A    between atoms: _356  and  _359
REMARK  162  A    between atoms: _362  and  _364
REMARK  163  A    between atoms: _364  and  _365
REMARK  164  A    between atoms: _364  and  _367
REMARK  165  A    between atoms: _367  and  _368
REMARK  166  A    between atoms: _373  and  _374
REMARK  167  A    between atoms: _376  and  _378
REMARK  168  A    between atoms: _378  and  _379
REMARK  169  A    between atoms: _378  and  _381
REMARK  170  A    between atoms: _381  and  _382
REMARK  171  A    between atoms: _386  and  _387
REMARK  172  A    between atoms: _392  and  _394
REMARK  173  A    between atoms: _394  and  _395
REMARK  174  A    between atoms: _394  and  _397
REMARK  175  A    between atoms: _397  and  _398
REMARK  176  A    between atoms: _401  and  _403
REMARK  177  A    between atoms: _403  and  _404
REMARK  178  A    between atoms: _403  and  _406
REMARK  179  A    between atoms: _406  and  _407
REMARK  180  A    between atoms: _407  and  _408
REMARK  181  A    between atoms: _408  and  _409
REMARK  182  A    between atoms: _409  and  _410
REMARK  183  A    between atoms: _414  and  _416
REMARK  184  A    between atoms: _416  and  _417
REMARK  185  A    between atoms: _416  and  _419
REMARK  186  A    between atoms: _419  and  _420
REMARK  187  A    between atoms: _426  and  _428
REMARK  188  A    between atoms: _428  and  _429
REMARK  189  A    between atoms: _428  and  _431
REMARK  190  A    between atoms: _434  and  _436
REMARK  191  A    between atoms: _436  and  _437
REMARK  192  A    between atoms: _436  and  _439
REMARK  193  A    between atoms: _442  and  _444
REMARK  194  A    between atoms: _444  and  _445
REMARK  195  A    between atoms: _447  and  _449
REMARK  196  A    between atoms: _449  and  _450
REMARK  197  A    between atoms: _449  and  _452
REMARK  198  A    between atoms: _452  and  _453
REMARK  199  A    between atoms: _458  and  _459
REMARK  200  A    between atoms: _461  and  _463
REMARK  201  A    between atoms: _463  and  _464
REMARK  202  A    between atoms: _467  and  _469
REMARK  203  A    between atoms: _469  and  _470
REMARK  204  A    between atoms: _469  and  _472
REMARK  205  A    between atoms: _472  and  _473
REMARK  206  A    between atoms: _476  and  _478
REMARK  207  A    between atoms: _478  and  _479
REMARK  208  A    between atoms: _478  and  _481
REMARK  209  A    between atoms: _481  and  _482
REMARK  210  A    between atoms: _482  and  _483
REMARK  211  A    between atoms: _483  and  MG_588
REMARK  212  A    between atoms: _485  and  _487
REMARK  213  A    between atoms: _487  and  _488
REMARK  214  A    between atoms: _487  and  _490
REMARK  215  A    between atoms: _490  and  _491
REMARK  216  A    between atoms: _496  and  _497
REMARK  217  A    between atoms: _499  and  _501
REMARK  218  A    between atoms: _501  and  _502
REMARK  219  A    between atoms: _501  and  _504
REMARK  220  A    between atoms: _504  and  _505
REMARK  221  A    between atoms: _510  and  _512
REMARK  222  A    between atoms: _512  and  _513
REMARK  223  A    between atoms: _512  and  _515
REMARK  224  A    between atoms: _515  and  _516
REMARK  225  A    between atoms: _516  and  _517
REMARK  226  A    between atoms: _520  and  _522
REMARK  227  A    between atoms: _522  and  _523
REMARK  228  A    between atoms: _522  and  _525
REMARK  229  A    between atoms: _525  and  _526
REMARK  230  A    between atoms: _531  and  _532
REMARK  231  A    between atoms: _534  and  _536
REMARK  232  A    between atoms: _536  and  _537
REMARK  233  A    between atoms: _536  and  _539
REMARK  234  A    between atoms: _539  and  _540
REMARK  235  A    between atoms: _546  and  _548
REMARK  236  A    between atoms: _548  and  _549
REMARK  237  A    between atoms: _548  and  _551
REMARK  238  A    between atoms: _551  and  _552
REMARK  239  A    between atoms: _552  and  _553
REMARK  240  A    between atoms: _553  and  _554
REMARK  241  A    between atoms: _563  and  _565
REMARK  242  A    between atoms: _565  and  _566
REMARK  243  A    between atoms: _565  and  _568
REMARK  244  A    between atoms: _571  and  _573
REMARK  245  A    between atoms: _573  and  _574
REMARK  246  A    between atoms: _573  and  _576
REMARK  247  A    between atoms: _578  and  _580
REMARK  248  A    between atoms: _580  and  _581
REMARK  249  A    between atoms: _580  and  _583
REMARK  250  A    between atoms: _583  and  _584
REMARK                            x       y       z     vdW  Elec       q    Type
REMARK                         _______ _______ _______ _____ _____    ______ ____
ROOT
ATOM      1  O   HOH     1      16.419  79.491  46.871  0.00  0.00    +0.000 OA
ENDROOT
TORSDOF 0
REMARK  Name = ../refined-set-2016/1bzy/1bzy_pocket.pdb
REMARK  250 active torsions:
REMARK  status: ('A' for Active; 'I' for Inactive)
REMARK    1  A    between atoms: _1  and  _3
REMARK    2  A    between atoms: _3  and  _4
REMARK    3  A    between atoms: _3  and  _6
REMARK    4  A    between atoms: _9  and  _11
REMARK    5  A    between atoms: _11  and  _12
REMARK    6  A    between atoms: _11  and  _14
REMARK    7  A    between atoms: _14  and  _15
REMARK    8  A    between atoms: _18  and  _20
REMARK    9  A    between atoms: _20  and  _21
REMARK   10  A    between atoms: _20  and  _23
REMARK   11  A    between atoms: _23  and  _24
REMARK   12  A    between atoms: _24  and  _25
REMARK   13  A    between atoms: _25  and  _26
REMARK   14  A    between atoms: _26  and  _27
REMARK   15  A    between atoms: _31  and  _33
REMARK   16  A    between atoms: _33  and  _34
REMARK   17  A    between atoms: _36  and  _38
REMARK   18  A    between atoms: _38  and  _39
REMARK   19  A    between atoms: _41  and  _43
REMARK   20  A    between atoms: _43  and  _44
REMARK   21  A    between atoms: _43  and  _46
REMARK   22  A    between atoms: _46  and  _47
REMARK   23  A    between atoms: _52  and  _53
REMARK   24  A    between atoms: _55  and  _57
REMARK   25  A    between atoms: _57  and  _58
REMARK   26  A    between atoms: _57  and  _60
REMARK   27  A    between atoms: _60  and  _61
REMARK   28  A    between atoms: _64  and  _66
REMARK   29  A    between atoms: _66  and  _67
REMARK   30  A    between atoms: _66  and  _69
REMARK   31  A    between atoms: _69  and  _70
REMARK   32  A    between atoms: _70  and  _71
REMARK   33  A    between atoms: _71  and  _72
REMARK   34  A    between atoms: _72  and  _73
REMARK   35  A    between atoms: _77  and  _79
REMARK   36  A    between atoms: _79  and  _80
REMARK   37  A    between atoms: _79  and  _82
REMARK   38  A    between atoms: _82  and  _83
REMARK   39  A    between atoms: _85  and  _87
REMARK   40  A    between atoms: _87  and  _88
REMARK   41  A    between atoms: _87  and  _90
REMARK   42  A    between atoms: _90  and  _91
REMARK   43  A    between atoms: _96  and  _97
REMARK   44  A    between atoms: _99  and  _101
REMARK   45  A    between atoms: _101  and  _102
REMARK   46  A    between atoms: _101  and  _104
REMARK   47  A    between atoms: _106  and  _108
REMARK   48  A    between atoms: _108  and  _109
REMARK   49  A    between atoms: _108  and  _111
REMARK   50  A    between atoms: _111  and  _112
REMARK   51  A    between atoms: _117  and  _119
REMARK   52  A    between atoms: _119  and  _120
REMARK   53  A    between atoms: _119  and  _122
REMARK   54  A    between atoms: _122  and  _123
REMARK   55  A    between atoms: _126  and  _128
REMARK   56  A    between atoms: _128  and  _129
REMARK   57  A    between atoms: _128  and  _131
REMARK   58  A    between atoms: _131  and  _132
REMARK   59  A    between atoms: _132  and  _133
REMARK   60  A    between atoms: _138  and  _140
REMARK   61  A    between atoms: _140  and  _141
REMARK   62  A    between atoms: _140  and  _143
REMARK   63  A    between atoms: _143  and  _144
REMARK   64  A    between atoms: _146  and  _148
REMARK   65  A    between atoms: _148  and  _149
REMARK   66  A    between atoms: _148  and  _151
REMARK   67  A    between atoms: _151  and  _152
REMARK   68  A    between atoms: _155  and  _157
REMARK   69  A    between atoms: _157  and  _158
REMARK   70  A    between atoms: _160  and  _162
REMARK   71  A    between atoms: _162  and  _163
REMARK   72  A    between atoms: _162  and  _165
REMARK   73  A    between atoms: _165  and  _166
REMARK   74  A    between atoms: _169  and  _171
REMARK   75  A    between atoms: _171  and  _172
REMARK   76  A    between atoms: _171  and  _174
REMARK   77  A    between atoms: _174  and  _175
REMARK   78  A    between atoms: _175  and  _176
REMARK   79  A    between atoms: _179  and  _181
REMARK   80  A    between atoms: _181  and  _182
REMARK   81  A    between atoms: _181  and  _184
REMARK   82  A    between atoms: _184  and  _185
REMARK   83  A    between atoms: _188  and  _190
REMARK   84  A    between atoms: _190  and  _191
REMARK   85  A    between atoms: _190  and  _193
REMARK   86  A    between atoms: _193  and  _194
REMARK   87  A    between atoms: _197  and  _199
REMARK   88  A    between atoms: _199  and  _200
REMARK   89  A    between atoms: _199  and  _202
REMARK   90  A    between atoms: _202  and  _203
REMARK   91  A    between atoms: _206  and  _208
REMARK   92  A    between atoms: _208  and  _209
REMARK   93  A    between atoms: _208  and  _211
REMARK   94  A    between atoms: _211  and  _212
REMARK   95  A    between atoms: _215  and  _217
REMARK   96  A    between atoms: _217  and  _218
REMARK   97  A    between atoms: _217  and  _220
REMARK   98  A    between atoms: _220  and  _221
REMARK   99  A    between atoms: _224  and  _226
REMARK  100  A    between atoms: _226  and  _227
REMARK  101  A    between atoms: _229  and  _231
REMARK  102  A    between atoms: _231  and  _232
REMARK  103  A    between atoms: _231  and  _234
REMARK  104  A    between atoms: _234  and  _235
REMARK  105  A    between atoms: _235  and  _236
REMARK  106  A    between atoms: _236  and  _237
REMARK  107  A    between atoms: _237  and  _238
REMARK  108  A    between atoms: _242  and  _244
REMARK  109  A    between atoms: _244  and  _245
REMARK  110  A    between atoms: _244  and  _247
REMARK  111  A    between atoms: _247  and  _248
REMARK  112  A    between atoms: _251  and  _253
REMARK  113  A    between atoms: _253  and  _254
REMARK  114  A    between atoms: _253  and  _256
REMARK  115  A    between atoms: _256  and  _257
REMARK  116  A    between atoms: _257  and  _258
REMARK  117  A    between atoms: _260  and  _262
REMARK  118  A    between atoms: _262  and  _263
REMARK  119  A    between atoms: _262  and  _265
REMARK  120  A    between atoms: _265  and  _266
REMARK  121  A    between atoms: _266  and  _267
REMARK  122  A    between atoms: _272  and  _274
REMARK  123  A    between atoms: _274  and  _275
REMARK  124  A    between atoms: _274  and  _277
REMARK  125  A    between atoms: _277  and  _278
REMARK  126  A    between atoms: _281  and  _283
REMARK  127  A    between atoms: _283  and  _284
REMARK  128  A    between atoms: _283  and  _286
REMARK  129  A    between atoms: _286  and  _287
REMARK  130  A    between atoms: _290  and  _292
REMARK  131  A    between atoms: _292  and  _293
REMARK  132  A    between atoms: _292  and  _295
REMARK  133  A    between atoms: _295  and  _296
REMARK  134  A    between atoms: _298  and  _300
REMARK  135  A    between atoms: _300  and  _301
REMARK  136  A    between atoms: _300  and  _303
REMARK  137  A    between atoms: _303  and  _304
REMARK  138  A    between atoms: _307  and  _309
REMARK  139  A    between atoms: _309  and  _310
REMARK  140  A    between atoms: _309  and  _312
REMARK  141  A    between atoms: _312  and  _313
REMARK  142  A    between atoms: _313  and  _314
REMARK  143  A    between atoms: _314  and  _315
REMARK  144  A    between atoms: _315  and  _316
REMARK  145  A    between atoms: _320  and  _322
REMARK  146  A    between atoms: _322  and  _323
REMARK  147  A    between atoms: _322  and  _325
REMARK  148  A    between atoms: _325  and  _326
REMARK  149  A    between atoms: _329  and  _331
REMARK  150  A    between atoms: _331  and  _332
REMARK  151  A    between atoms: _331  and  _334
REMARK  152  A    between atoms: _334  and  _335
REMARK  153  A    between atoms: _335  and  _336
REMARK  154  A    between atoms: _336  and  _337
REMARK  155  A    between atoms: _346  and  _348
REMARK  156  A    between atoms: _348  and  _349
REMARK  157  A    between atoms: _348  and  _351
REMARK  158  A    between atoms: _351  and  _352
REMARK  159  A    between atoms: _354  and  _356
REMARK  160  A    between atoms: _356  and  _357
REMARK  161  A    between atoms: _356  and  _359
REMARK  162  A    between atoms: _362  and  _364
REMARK  163  A    between atoms: _364  and  _365
REMARK  164  A    between atoms: _364  and  _367
REMARK  165  A    between atoms: _367  and  _368
REMARK  166  A    between atoms: _373  and  _374
REMARK  167  A    between atoms: _376  and  _378
REMARK  168  A    between atoms: _378  and  _379
REMARK  169  A    between atoms: _378  and  _381
REMARK  170  A    between atoms: _381  and  _382
REMARK  171  A    between atoms: _386  and  _387
REMARK  172  A    between atoms: _392  and  _394
REMARK  173  A    between atoms: _394  and  _395
REMARK  174  A    between atoms: _394  and  _397
REMARK  175  A    between atoms: _397  and  _398
REMARK  176  A    between atoms: _401  and  _403
REMARK  177  A    between atoms: _403  and  _404
REMARK  178  A    between atoms: _403  and  _406
REMARK  179  A    between atoms: _406  and  _407
REMARK  180  A    between atoms: _407  and  _408
REMARK  181  A    between atoms: _408  and  _409
REMARK  182  A    between atoms: _409  and  _410
REMARK  183  A    between atoms: _414  and  _416
REMARK  184  A    between atoms: _416  and  _417
REMARK  185  A    between atoms: _416  and  _419
REMARK  186  A    between atoms: _419  and  _420
REMARK  187  A    between atoms: _426  and  _428
REMARK  188  A    between atoms: _428  and  _429
REMARK  189  A    between atoms: _428  and  _431
REMARK  190  A    between atoms: _434  and  _436
REMARK  191  A    between atoms: _436  and  _437
REMARK  192  A    between atoms: _436  and  _439
REMARK  193  A    between atoms: _442  and  _444
REMARK  194  A    between atoms: _444  and  _445
REMARK  195  A    between atoms: _447  and  _449
REMARK  196  A    between atoms: _449  and  _450
REMARK  197  A    between atoms: _449  and  _452
REMARK  198  A    between atoms: _452  and  _453
REMARK  199  A    between atoms: _458  and  _459
REMARK  200  A    between atoms: _461  and  _463
REMARK  201  A    between atoms: _463  and  _464
REMARK  202  A    between atoms: _467  and  _469
REMARK  203  A    between atoms: _469  and  _470
REMARK  204  A    between atoms: _469  and  _472
REMARK  205  A    between atoms: _472  and  _473
REMARK  206  A    between atoms: _476  and  _478
REMARK  207  A    between atoms: _478  and  _479
REMARK  208  A    between atoms: _478  and  _481
REMARK  209  A    between atoms: _481  and  _482
REMARK  210  A    between atoms: _482  and  _483
REMARK  211  A    between atoms: _483  and  MG_588
REMARK  212  A    between atoms: _485  and  _487
REMARK  213  A    between atoms: _487  and  _488
REMARK  214  A    between atoms: _487  and  _490
REMARK  215  A    between atoms: _490  and  _491
REMARK  216  A    between atoms: _496  and  _497
REMARK  217  A    between atoms: _499  and  _501
REMARK  218  A    between atoms: _501  and  _502
REMARK  219  A    between atoms: _501  and  _504
REMARK  220  A    between atoms: _504  and  _505
REMARK  221  A    between atoms: _510  and  _512
REMARK  222  A    between atoms: _512  and  _513
REMARK  223  A    between atoms: _512  and  _515
REMARK  224  A    between atoms: _515  and  _516
REMARK  225  A    between atoms: _516  and  _517
REMARK  226  A    between atoms: _520  and  _522
REMARK  227  A    between atoms: _522  and  _523
REMARK  228  A    between atoms: _522  and  _525
REMARK  229  A    between atoms: _525  and  _526
REMARK  230  A    between atoms: _531  and  _532
REMARK  231  A    between atoms: _534  and  _536
REMARK  232  A    between atoms: _536  and  _537
REMARK  233  A    between atoms: _536  and  _539
REMARK  234  A    between atoms: _539  and  _540
REMARK  235  A    between atoms: _546  and  _548
REMARK  236  A    between atoms: _548  and  _549
REMARK  237  A    between atoms: _548  and  _551
REMARK  238  A    between atoms: _551  and  _552
REMARK  239  A    between atoms: _552  and  _553
REMARK  240  A    between atoms: _553  and  _554
REMARK  241  A    between atoms: _563  and  _565
REMARK  242  A    between atoms: _565  and  _566
REMARK  243  A    between atoms: _565  and  _568
REMARK  244  A    between atoms: _571  and  _573
REMARK  245  A    between atoms: _573  and  _574
REMARK  246  A    between atoms: _573  and  _576
REMARK  247  A    between atoms: _578  and  _580
REMARK  248  A    between atoms: _580  and  _581
REMARK  249  A    between atoms: _580  and  _583
REMARK  250  A    between atoms: _583  and  _584
REMARK                            x       y       z     vdW  Elec       q    Type
REMARK                         _______ _______ _______ _____ _____    ______ ____
ROOT
ATOM      1  O   HOH     1       5.325  91.349  38.420  0.00  0.00    +0.000 OA
ENDROOT
TORSDOF 0
REMARK  Name = ../refined-set-2016/1bzy/1bzy_pocket.pdb
REMARK  250 active torsions:
REMARK  status: ('A' for Active; 'I' for Inactive)
REMARK    1  A    between atoms: _1  and  _3
REMARK    2  A    between atoms: _3  and  _4
REMARK    3  A    between atoms: _3  and  _6
REMARK    4  A    between atoms: _9  and  _11
REMARK    5  A    between atoms: _11  and  _12
REMARK    6  A    between atoms: _11  and  _14
REMARK    7  A    between atoms: _14  and  _15
REMARK    8  A    between atoms: _18  and  _20
REMARK    9  A    between atoms: _20  and  _21
REMARK   10  A    between atoms: _20  and  _23
REMARK   11  A    between atoms: _23  and  _24
REMARK   12  A    between atoms: _24  and  _25
REMARK   13  A    between atoms: _25  and  _26
REMARK   14  A    between atoms: _26  and  _27
REMARK   15  A    between atoms: _31  and  _33
REMARK   16  A    between atoms: _33  and  _34
REMARK   17  A    between atoms: _36  and  _38
REMARK   18  A    between atoms: _38  and  _39
REMARK   19  A    between atoms: _41  and  _43
REMARK   20  A    between atoms: _43  and  _44
REMARK   21  A    between atoms: _43  and  _46
REMARK   22  A    between atoms: _46  and  _47
REMARK   23  A    between atoms: _52  and  _53
REMARK   24  A    between atoms: _55  and  _57
REMARK   25  A    between atoms: _57  and  _58
REMARK   26  A    between atoms: _57  and  _60
REMARK   27  A    between atoms: _60  and  _61
REMARK   28  A    between atoms: _64  and  _66
REMARK   29  A    between atoms: _66  and  _67
REMARK   30  A    between atoms: _66  and  _69
REMARK   31  A    between atoms: _69  and  _70
REMARK   32  A    between atoms: _70  and  _71
REMARK   33  A    between atoms: _71  and  _72
REMARK   34  A    between atoms: _72  and  _73
REMARK   35  A    between atoms: _77  and  _79
REMARK   36  A    between atoms: _79  and  _80
REMARK   37  A    between atoms: _79  and  _82
REMARK   38  A    between atoms: _82  and  _83
REMARK   39  A    between atoms: _85  and  _87
REMARK   40  A    between atoms: _87  and  _88
REMARK   41  A    between atoms: _87  and  _90
REMARK   42  A    between atoms: _90  and  _91
REMARK   43  A    between atoms: _96  and  _97
REMARK   44  A    between atoms: _99  and  _101
REMARK   45  A    between atoms: _101  and  _102
REMARK   46  A    between atoms: _101  and  _104
REMARK   47  A    between atoms: _106  and  _108
REMARK   48  A    between atoms: _108  and  _109
REMARK   49  A    between atoms: _108  and  _111
REMARK   50  A    between atoms: _111  and  _112
REMARK   51  A    between atoms: _117  and  _119
REMARK   52  A    between atoms: _119  and  _120
REMARK   53  A    between atoms: _119  and  _122
REMARK   54  A    between atoms: _122  and  _123
REMARK   55  A    between atoms: _126  and  _128
REMARK   56  A    between atoms: _128  and  _129
REMARK   57  A    between atoms: _128  and  _131
REMARK   58  A    between atoms: _131  and  _132
REMARK   59  A    between atoms: _132  and  _133
REMARK   60  A    between atoms: _138  and  _140
REMARK   61  A    between atoms: _140  and  _141
REMARK   62  A    between atoms: _140  and  _143
REMARK   63  A    between atoms: _143  and  _144
REMARK   64  A    between atoms: _146  and  _148
REMARK   65  A    between atoms: _148  and  _149
REMARK   66  A    between atoms: _148  and  _151
REMARK   67  A    between atoms: _151  and  _152
REMARK   68  A    between atoms: _155  and  _157
REMARK   69  A    between atoms: _157  and  _158
REMARK   70  A    between atoms: _160  and  _162
REMARK   71  A    between atoms: _162  and  _163
REMARK   72  A    between atoms: _162  and  _165
REMARK   73  A    between atoms: _165  and  _166
REMARK   74  A    between atoms: _169  and  _171
REMARK   75  A    between atoms: _171  and  _172
REMARK   76  A    between atoms: _171  and  _174
REMARK   77  A    between atoms: _174  and  _175
REMARK   78  A    between atoms: _175  and  _176
REMARK   79  A    between atoms: _179  and  _181
REMARK   80  A    between atoms: _181  and  _182
REMARK   81  A    between atoms: _181  and  _184
REMARK   82  A    between atoms: _184  and  _185
REMARK   83  A    between atoms: _188  and  _190
REMARK   84  A    between atoms: _190  and  _191
REMARK   85  A    between atoms: _190  and  _193
REMARK   86  A    between atoms: _193  and  _194
REMARK   87  A    between atoms: _197  and  _199
REMARK   88  A    between atoms: _199  and  _200
REMARK   89  A    between atoms: _199  and  _202
REMARK   90  A    between atoms: _202  and  _203
REMARK   91  A    between atoms: _206  and  _208
REMARK   92  A    between atoms: _208  and  _209
REMARK   93  A    between atoms: _208  and  _211
REMARK   94  A    between atoms: _211  and  _212
REMARK   95  A    between atoms: _215  and  _217
REMARK   96  A    between atoms: _217  and  _218
REMARK   97  A    between atoms: _217  and  _220
REMARK   98  A    between atoms: _220  and  _221
REMARK   99  A    between atoms: _224  and  _226
REMARK  100  A    between atoms: _226  and  _227
REMARK  101  A    between atoms: _229  and  _231
REMARK  102  A    between atoms: _231  and  _232
REMARK  103  A    between atoms: _231  and  _234
REMARK  104  A    between atoms: _234  and  _235
REMARK  105  A    between atoms: _235  and  _236
REMARK  106  A    between atoms: _236  and  _237
REMARK  107  A    between atoms: _237  and  _238
REMARK  108  A    between atoms: _242  and  _244
REMARK  109  A    between atoms: _244  and  _245
REMARK  110  A    between atoms: _244  and  _247
REMARK  111  A    between atoms: _247  and  _248
REMARK  112  A    between atoms: _251  and  _253
REMARK  113  A    between atoms: _253  and  _254
REMARK  114  A    between atoms: _253  and  _256
REMARK  115  A    between atoms: _256  and  _257
REMARK  116  A    between atoms: _257  and  _258
REMARK  117  A    between atoms: _260  and  _262
REMARK  118  A    between atoms: _262  and  _263
REMARK  119  A    between atoms: _262  and  _265
REMARK  120  A    between atoms: _265  and  _266
REMARK  121  A    between atoms: _266  and  _267
REMARK  122  A    between atoms: _272  and  _274
REMARK  123  A    between atoms: _274  and  _275
REMARK  124  A    between atoms: _274  and  _277
REMARK  125  A    between atoms: _277  and  _278
REMARK  126  A    between atoms: _281  and  _283
REMARK  127  A    between atoms: _283  and  _284
REMARK  128  A    between atoms: _283  and  _286
REMARK  129  A    between atoms: _286  and  _287
REMARK  130  A    between atoms: _290  and  _292
REMARK  131  A    between atoms: _292  and  _293
REMARK  132  A    between atoms: _292  and  _295
REMARK  133  A    between atoms: _295  and  _296
REMARK  134  A    between atoms: _298  and  _300
REMARK  135  A    between atoms: _300  and  _301
REMARK  136  A    between atoms: _300  and  _303
REMARK  137  A    between atoms: _303  and  _304
REMARK  138  A    between atoms: _307  and  _309
REMARK  139  A    between atoms: _309  and  _310
REMARK  140  A    between atoms: _309  and  _312
REMARK  141  A    between atoms: _312  and  _313
REMARK  142  A    between atoms: _313  and  _314
REMARK  143  A    between atoms: _314  and  _315
REMARK  144  A    between atoms: _315  and  _316
REMARK  145  A    between atoms: _320  and  _322
REMARK  146  A    between atoms: _322  and  _323
REMARK  147  A    between atoms: _322  and  _325
REMARK  148  A    between atoms: _325  and  _326
REMARK  149  A    between atoms: _329  and  _331
REMARK  150  A    between atoms: _331  and  _332
REMARK  151  A    between atoms: _331  and  _334
REMARK  152  A    between atoms: _334  and  _335
REMARK  153  A    between atoms: _335  and  _336
REMARK  154  A    between atoms: _336  and  _337
REMARK  155  A    between atoms: _346  and  _348
REMARK  156  A    between atoms: _348  and  _349
REMARK  157  A    between atoms: _348  and  _351
REMARK  158  A    between atoms: _351  and  _352
REMARK  159  A    between atoms: _354  and  _356
REMARK  160  A    between atoms: _356  and  _357
REMARK  161  A    between atoms: _356  and  _359
REMARK  162  A    between atoms: _362  and  _364
REMARK  163  A    between atoms: _364  and  _365
REMARK  164  A    between atoms: _364  and  _367
REMARK  165  A    between atoms: _367  and  _368
REMARK  166  A    between atoms: _373  and  _374
REMARK  167  A    between atoms: _376  and  _378
REMARK  168  A    between atoms: _378  and  _379
REMARK  169  A    between atoms: _378  and  _381
REMARK  170  A    between atoms: _381  and  _382
REMARK  171  A    between atoms: _386  and  _387
REMARK  172  A    between atoms: _392  and  _394
REMARK  173  A    between atoms: _394  and  _395
REMARK  174  A    between atoms: _394  and  _397
REMARK  175  A    between atoms: _397  and  _398
REMARK  176  A    between atoms: _401  and  _403
REMARK  177  A    between atoms: _403  and  _404
REMARK  178  A    between atoms: _403  and  _406
REMARK  179  A    between atoms: _406  and  _407
REMARK  180  A    between atoms: _407  and  _408
REMARK  181  A    between atoms: _408  and  _409
REMARK  182  A    between atoms: _409  and  _410
REMARK  183  A    between atoms: _414  and  _416
REMARK  184  A    between atoms: _416  and  _417
REMARK  185  A    between atoms: _416  and  _419
REMARK  186  A    between atoms: _419  and  _420
REMARK  187  A    between atoms: _426  and  _428
REMARK  188  A    between atoms: _428  and  _429
REMARK  189  A    between atoms: _428  and  _431
REMARK  190  A    between atoms: _434  and  _436
REMARK  191  A    between atoms: _436  and  _437
REMARK  192  A    between atoms: _436  and  _439
REMARK  193  A    between atoms: _442  and  _444
REMARK  194  A    between atoms: _444  and  _445
REMARK  195  A    between atoms: _447  and  _449
REMARK  196  A    between atoms: _449  and  _450
REMARK  197  A    between atoms: _449  and  _452
REMARK  198  A    between atoms: _452  and  _453
REMARK  199  A    between atoms: _458  and  _459
REMARK  200  A    between atoms: _461  and  _463
REMARK  201  A    between atoms: _463  and  _464
REMARK  202  A    between atoms: _467  and  _469
REMARK  203  A    between atoms: _469  and  _470
REMARK  204  A    between atoms: _469  and  _472
REMARK  205  A    between atoms: _472  and  _473
REMARK  206  A    between atoms: _476  and  _478
REMARK  207  A    between atoms: _478  and  _479
REMARK  208  A    between atoms: _478  and  _481
REMARK  209  A    between atoms: _481  and  _482
REMARK  210  A    between atoms: _482  and  _483
REMARK  211  A    between atoms: _483  and  MG_588
REMARK  212  A    between atoms: _485  and  _487
REMARK  213  A    between atoms: _487  and  _488
REMARK  214  A    between atoms: _487  and  _490
REMARK  215  A    between atoms: _490  and  _491
REMARK  216  A    between atoms: _496  and  _497
REMARK  217  A    between atoms: _499  and  _501
REMARK  218  A    between atoms: _501  and  _502
REMARK  219  A    between atoms: _501  and  _504
REMARK  220  A    between atoms: _504  and  _505
REMARK  221  A    between atoms: _510  and  _512
REMARK  222  A    between atoms: _512  and  _513
REMARK  223  A    between atoms: _512  and  _515
REMARK  224  A    between atoms: _515  and  _516
REMARK  225  A    between atoms: _516  and  _517
REMARK  226  A    between atoms: _520  and  _522
REMARK  227  A    between atoms: _522  and  _523
REMARK  228  A    between atoms: _522  and  _525
REMARK  229  A    between atoms: _525  and  _526
REMARK  230  A    between atoms: _531  and  _532
REMARK  231  A    between atoms: _534  and  _536
REMARK  232  A    between atoms: _536  and  _537
REMARK  233  A    between atoms: _536  and  _539
REMARK  234  A    between atoms: _539  and  _540
REMARK  235  A    between atoms: _546  and  _548
REMARK  236  A    between atoms: _548  and  _549
REMARK  237  A    between atoms: _548  and  _551
REMARK  238  A    between atoms: _551  and  _552
REMARK  239  A    between atoms: _552  and  _553
REMARK  240  A    between atoms: _553  and  _554
REMARK  241  A    between atoms: _563  and  _565
REMARK  242  A    between atoms: _565  and  _566
REMARK  243  A    between atoms: _565  and  _568
REMARK  244  A    between atoms: _571  and  _573
REMARK  245  A    between atoms: _573  and  _574
REMARK  246  A    between atoms: _573  and  _576
REMARK  247  A    between atoms: _578  and  _580
REMARK  248  A    between atoms: _580  and  _581
REMARK  249  A    between atoms: _580  and  _583
REMARK  250  A    between atoms: _583  and  _584
REMARK                            x       y       z     vdW  Elec       q    Type
REMARK                         _______ _______ _______ _____ _____    ______ ____
ROOT
ATOM      1  O   HOH     1       4.922  86.941  44.504  0.00  0.00    +0.000 OA
ENDROOT
TORSDOF 0
REMARK  Name = ../refined-set-2016/1bzy/1bzy_pocket.pdb
REMARK  250 active torsions:
REMARK  status: ('A' for Active; 'I' for Inactive)
REMARK    1  A    between atoms: _1  and  _3
REMARK    2  A    between atoms: _3  and  _4
REMARK    3  A    between atoms: _3  and  _6
REMARK    4  A    between atoms: _9  and  _11
REMARK    5  A    between atoms: _11  and  _12
REMARK    6  A    between atoms: _11  and  _14
REMARK    7  A    between atoms: _14  and  _15
REMARK    8  A    between atoms: _18  and  _20
REMARK    9  A    between atoms: _20  and  _21
REMARK   10  A    between atoms: _20  and  _23
REMARK   11  A    between atoms: _23  and  _24
REMARK   12  A    between atoms: _24  and  _25
REMARK   13  A    between atoms: _25  and  _26
REMARK   14  A    between atoms: _26  and  _27
REMARK   15  A    between atoms: _31  and  _33
REMARK   16  A    between atoms: _33  and  _34
REMARK   17  A    between atoms: _36  and  _38
REMARK   18  A    between atoms: _38  and  _39
REMARK   19  A    between atoms: _41  and  _43
REMARK   20  A    between atoms: _43  and  _44
REMARK   21  A    between atoms: _43  and  _46
REMARK   22  A    between atoms: _46  and  _47
REMARK   23  A    between atoms: _52  and  _53
REMARK   24  A    between atoms: _55  and  _57
REMARK   25  A    between atoms: _57  and  _58
REMARK   26  A    between atoms: _57  and  _60
REMARK   27  A    between atoms: _60  and  _61
REMARK   28  A    between atoms: _64  and  _66
REMARK   29  A    between atoms: _66  and  _67
REMARK   30  A    between atoms: _66  and  _69
REMARK   31  A    between atoms: _69  and  _70
REMARK   32  A    between atoms: _70  and  _71
REMARK   33  A    between atoms: _71  and  _72
REMARK   34  A    between atoms: _72  and  _73
REMARK   35  A    between atoms: _77  and  _79
REMARK   36  A    between atoms: _79  and  _80
REMARK   37  A    between atoms: _79  and  _82
REMARK   38  A    between atoms: _82  and  _83
REMARK   39  A    between atoms: _85  and  _87
REMARK   40  A    between atoms: _87  and  _88
REMARK   41  A    between atoms: _87  and  _90
REMARK   42  A    between atoms: _90  and  _91
REMARK   43  A    between atoms: _96  and  _97
REMARK   44  A    between atoms: _99  and  _101
REMARK   45  A    between atoms: _101  and  _102
REMARK   46  A    between atoms: _101  and  _104
REMARK   47  A    between atoms: _106  and  _108
REMARK   48  A    between atoms: _108  and  _109
REMARK   49  A    between atoms: _108  and  _111
REMARK   50  A    between atoms: _111  and  _112
REMARK   51  A    between atoms: _117  and  _119
REMARK   52  A    between atoms: _119  and  _120
REMARK   53  A    between atoms: _119  and  _122
REMARK   54  A    between atoms: _122  and  _123
REMARK   55  A    between atoms: _126  and  _128
REMARK   56  A    between atoms: _128  and  _129
REMARK   57  A    between atoms: _128  and  _131
REMARK   58  A    between atoms: _131  and  _132
REMARK   59  A    between atoms: _132  and  _133
REMARK   60  A    between atoms: _138  and  _140
REMARK   61  A    between atoms: _140  and  _141
REMARK   62  A    between atoms: _140  and  _143
REMARK   63  A    between atoms: _143  and  _144
REMARK   64  A    between atoms: _146  and  _148
REMARK   65  A    between atoms: _148  and  _149
REMARK   66  A    between atoms: _148  and  _151
REMARK   67  A    between atoms: _151  and  _152
REMARK   68  A    between atoms: _155  and  _157
REMARK   69  A    between atoms: _157  and  _158
REMARK   70  A    between atoms: _160  and  _162
REMARK   71  A    between atoms: _162  and  _163
REMARK   72  A    between atoms: _162  and  _165
REMARK   73  A    between atoms: _165  and  _166
REMARK   74  A    between atoms: _169  and  _171
REMARK   75  A    between atoms: _171  and  _172
REMARK   76  A    between atoms: _171  and  _174
REMARK   77  A    between atoms: _174  and  _175
REMARK   78  A    between atoms: _175  and  _176
REMARK   79  A    between atoms: _179  and  _181
REMARK   80  A    between atoms: _181  and  _182
REMARK   81  A    between atoms: _181  and  _184
REMARK   82  A    between atoms: _184  and  _185
REMARK   83  A    between atoms: _188  and  _190
REMARK   84  A    between atoms: _190  and  _191
REMARK   85  A    between atoms: _190  and  _193
REMARK   86  A    between atoms: _193  and  _194
REMARK   87  A    between atoms: _197  and  _199
REMARK   88  A    between atoms: _199  and  _200
REMARK   89  A    between atoms: _199  and  _202
REMARK   90  A    between atoms: _202  and  _203
REMARK   91  A    between atoms: _206  and  _208
REMARK   92  A    between atoms: _208  and  _209
REMARK   93  A    between atoms: _208  and  _211
REMARK   94  A    between atoms: _211  and  _212
REMARK   95  A    between atoms: _215  and  _217
REMARK   96  A    between atoms: _217  and  _218
REMARK   97  A    between atoms: _217  and  _220
REMARK   98  A    between atoms: _220  and  _221
REMARK   99  A    between atoms: _224  and  _226
REMARK  100  A    between atoms: _226  and  _227
REMARK  101  A    between atoms: _229  and  _231
REMARK  102  A    between atoms: _231  and  _232
REMARK  103  A    between atoms: _231  and  _234
REMARK  104  A    between atoms: _234  and  _235
REMARK  105  A    between atoms: _235  and  _236
REMARK  106  A    between atoms: _236  and  _237
REMARK  107  A    between atoms: _237  and  _238
REMARK  108  A    between atoms: _242  and  _244
REMARK  109  A    between atoms: _244  and  _245
REMARK  110  A    between atoms: _244  and  _247
REMARK  111  A    between atoms: _247  and  _248
REMARK  112  A    between atoms: _251  and  _253
REMARK  113  A    between atoms: _253  and  _254
REMARK  114  A    between atoms: _253  and  _256
REMARK  115  A    between atoms: _256  and  _257
REMARK  116  A    between atoms: _257  and  _258
REMARK  117  A    between atoms: _260  and  _262
REMARK  118  A    between atoms: _262  and  _263
REMARK  119  A    between atoms: _262  and  _265
REMARK  120  A    between atoms: _265  and  _266
REMARK  121  A    between atoms: _266  and  _267
REMARK  122  A    between atoms: _272  and  _274
REMARK  123  A    between atoms: _274  and  _275
REMARK  124  A    between atoms: _274  and  _277
REMARK  125  A    between atoms: _277  and  _278
REMARK  126  A    between atoms: _281  and  _283
REMARK  127  A    between atoms: _283  and  _284
REMARK  128  A    between atoms: _283  and  _286
REMARK  129  A    between atoms: _286  and  _287
REMARK  130  A    between atoms: _290  and  _292
REMARK  131  A    between atoms: _292  and  _293
REMARK  132  A    between atoms: _292  and  _295
REMARK  133  A    between atoms: _295  and  _296
REMARK  134  A    between atoms: _298  and  _300
REMARK  135  A    between atoms: _300  and  _301
REMARK  136  A    between atoms: _300  and  _303
REMARK  137  A    between atoms: _303  and  _304
REMARK  138  A    between atoms: _307  and  _309
REMARK  139  A    between atoms: _309  and  _310
REMARK  140  A    between atoms: _309  and  _312
REMARK  141  A    between atoms: _312  and  _313
REMARK  142  A    between atoms: _313  and  _314
REMARK  143  A    between atoms: _314  and  _315
REMARK  144  A    between atoms: _315  and  _316
REMARK  145  A    between atoms: _320  and  _322
REMARK  146  A    between atoms: _322  and  _323
REMARK  147  A    between atoms: _322  and  _325
REMARK  148  A    between atoms: _325  and  _326
REMARK  149  A    between atoms: _329  and  _331
REMARK  150  A    between atoms: _331  and  _332
REMARK  151  A    between atoms: _331  and  _334
REMARK  152  A    between atoms: _334  and  _335
REMARK  153  A    between atoms: _335  and  _336
REMARK  154  A    between atoms: _336  and  _337
REMARK  155  A    between atoms: _346  and  _348
REMARK  156  A    between atoms: _348  and  _349
REMARK  157  A    between atoms: _348  and  _351
REMARK  158  A    between atoms: _351  and  _352
REMARK  159  A    between atoms: _354  and  _356
REMARK  160  A    between atoms: _356  and  _357
REMARK  161  A    between atoms: _356  and  _359
REMARK  162  A    between atoms: _362  and  _364
REMARK  163  A    between atoms: _364  and  _365
REMARK  164  A    between atoms: _364  and  _367
REMARK  165  A    between atoms: _367  and  _368
REMARK  166  A    between atoms: _373  and  _374
REMARK  167  A    between atoms: _376  and  _378
REMARK  168  A    between atoms: _378  and  _379
REMARK  169  A    between atoms: _378  and  _381
REMARK  170  A    between atoms: _381  and  _382
REMARK  171  A    between atoms: _386  and  _387
REMARK  172  A    between atoms: _392  and  _394
REMARK  173  A    between atoms: _394  and  _395
REMARK  174  A    between atoms: _394  and  _397
REMARK  175  A    between atoms: _397  and  _398
REMARK  176  A    between atoms: _401  and  _403
REMARK  177  A    between atoms: _403  and  _404
REMARK  178  A    between atoms: _403  and  _406
REMARK  179  A    between atoms: _406  and  _407
REMARK  180  A    between atoms: _407  and  _408
REMARK  181  A    between atoms: _408  and  _409
REMARK  182  A    between atoms: _409  and  _410
REMARK  183  A    between atoms: _414  and  _416
REMARK  184  A    between atoms: _416  and  _417
REMARK  185  A    between atoms: _416  and  _419
REMARK  186  A    between atoms: _419  and  _420
REMARK  187  A    between atoms: _426  and  _428
REMARK  188  A    between atoms: _428  and  _429
REMARK  189  A    between atoms: _428  and  _431
REMARK  190  A    between atoms: _434  and  _436
REMARK  191  A    between atoms: _436  and  _437
REMARK  192  A    between atoms: _436  and  _439
REMARK  193  A    between atoms: _442  and  _444
REMARK  194  A    between atoms: _444  and  _445
REMARK  195  A    between atoms: _447  and  _449
REMARK  196  A    between atoms: _449  and  _450
REMARK  197  A    between atoms: _449  and  _452
REMARK  198  A    between atoms: _452  and  _453
REMARK  199  A    between atoms: _458  and  _459
REMARK  200  A    between atoms: _461  and  _463
REMARK  201  A    between atoms: _463  and  _464
REMARK  202  A    between atoms: _467  and  _469
REMARK  203  A    between atoms: _469  and  _470
REMARK  204  A    between atoms: _469  and  _472
REMARK  205  A    between atoms: _472  and  _473
REMARK  206  A    between atoms: _476  and  _478
REMARK  207  A    between atoms: _478  and  _479
REMARK  208  A    between atoms: _478  and  _481
REMARK  209  A    between atoms: _481  and  _482
REMARK  210  A    between atoms: _482  and  _483
REMARK  211  A    between atoms: _483  and  MG_588
REMARK  212  A    between atoms: _485  and  _487
REMARK  213  A    between atoms: _487  and  _488
REMARK  214  A    between atoms: _487  and  _490
REMARK  215  A    between atoms: _490  and  _491
REMARK  216  A    between atoms: _496  and  _497
REMARK  217  A    between atoms: _499  and  _501
REMARK  218  A    between atoms: _501  and  _502
REMARK  219  A    between atoms: _501  and  _504
REMARK  220  A    between atoms: _504  and  _505
REMARK  221  A    between atoms: _510  and  _512
REMARK  222  A    between atoms: _512  and  _513
REMARK  223  A    between atoms: _512  and  _515
REMARK  224  A    between atoms: _515  and  _516
REMARK  225  A    between atoms: _516  and  _517
REMARK  226  A    between atoms: _520  and  _522
REMARK  227  A    between atoms: _522  and  _523
REMARK  228  A    between atoms: _522  and  _525
REMARK  229  A    between atoms: _525  and  _526
REMARK  230  A    between atoms: _531  and  _532
REMARK  231  A    between atoms: _534  and  _536
REMARK  232  A    between atoms: _536  and  _537
REMARK  233  A    between atoms: _536  and  _539
REMARK  234  A    between atoms: _539  and  _540
REMARK  235  A    between atoms: _546  and  _548
REMARK  236  A    between atoms: _548  and  _549
REMARK  237  A    between atoms: _548  and  _551
REMARK  238  A    between atoms: _551  and  _552
REMARK  239  A    between atoms: _552  and  _553
REMARK  240  A    between atoms: _553  and  _554
REMARK  241  A    between atoms: _563  and  _565
REMARK  242  A    between atoms: _565  and  _566
REMARK  243  A    between atoms: _565  and  _568
REMARK  244  A    between atoms: _571  and  _573
REMARK  245  A    between atoms: _573  and  _574
REMARK  246  A    between atoms: _573  and  _576
REMARK  247  A    between atoms: _578  and  _580
REMARK  248  A    between atoms: _580  and  _581
REMARK  249  A    between atoms: _580  and  _583
REMARK  250  A    between atoms: _583  and  _584
REMARK                            x       y       z     vdW  Elec       q    Type
REMARK                         _______ _______ _______ _____ _____    ______ ____
ROOT
ATOM      1  O   HOH     1       1.067  83.744  41.554  0.00  0.00    +0.000 OA
ENDROOT
TORSDOF 0
REMARK  Name = ../refined-set-2016/1bzy/1bzy_pocket.pdb
REMARK  250 active torsions:
REMARK  status: ('A' for Active; 'I' for Inactive)
REMARK    1  A    between atoms: _1  and  _3
REMARK    2  A    between atoms: _3  and  _4
REMARK    3  A    between atoms: _3  and  _6
REMARK    4  A    between atoms: _9  and  _11
REMARK    5  A    between atoms: _11  and  _12
REMARK    6  A    between atoms: _11  and  _14
REMARK    7  A    between atoms: _14  and  _15
REMARK    8  A    between atoms: _18  and  _20
REMARK    9  A    between atoms: _20  and  _21
REMARK   10  A    between atoms: _20  and  _23
REMARK   11  A    between atoms: _23  and  _24
REMARK   12  A    between atoms: _24  and  _25
REMARK   13  A    between atoms: _25  and  _26
REMARK   14  A    between atoms: _26  and  _27
REMARK   15  A    between atoms: _31  and  _33
REMARK   16  A    between atoms: _33  and  _34
REMARK   17  A    between atoms: _36  and  _38
REMARK   18  A    between atoms: _38  and  _39
REMARK   19  A    between atoms: _41  and  _43
REMARK   20  A    between atoms: _43  and  _44
REMARK   21  A    between atoms: _43  and  _46
REMARK   22  A    between atoms: _46  and  _47
REMARK   23  A    between atoms: _52  and  _53
REMARK   24  A    between atoms: _55  and  _57
REMARK   25  A    between atoms: _57  and  _58
REMARK   26  A    between atoms: _57  and  _60
REMARK   27  A    between atoms: _60  and  _61
REMARK   28  A    between atoms: _64  and  _66
REMARK   29  A    between atoms: _66  and  _67
REMARK   30  A    between atoms: _66  and  _69
REMARK   31  A    between atoms: _69  and  _70
REMARK   32  A    between atoms: _70  and  _71
REMARK   33  A    between atoms: _71  and  _72
REMARK   34  A    between atoms: _72  and  _73
REMARK   35  A    between atoms: _77  and  _79
REMARK   36  A    between atoms: _79  and  _80
REMARK   37  A    between atoms: _79  and  _82
REMARK   38  A    between atoms: _82  and  _83
REMARK   39  A    between atoms: _85  and  _87
REMARK   40  A    between atoms: _87  and  _88
REMARK   41  A    between atoms: _87  and  _90
REMARK   42  A    between atoms: _90  and  _91
REMARK   43  A    between atoms: _96  and  _97
REMARK   44  A    between atoms: _99  and  _101
REMARK   45  A    between atoms: _101  and  _102
REMARK   46  A    between atoms: _101  and  _104
REMARK   47  A    between atoms: _106  and  _108
REMARK   48  A    between atoms: _108  and  _109
REMARK   49  A    between atoms: _108  and  _111
REMARK   50  A    between atoms: _111  and  _112
REMARK   51  A    between atoms: _117  and  _119
REMARK   52  A    between atoms: _119  and  _120
REMARK   53  A    between atoms: _119  and  _122
REMARK   54  A    between atoms: _122  and  _123
REMARK   55  A    between atoms: _126  and  _128
REMARK   56  A    between atoms: _128  and  _129
REMARK   57  A    between atoms: _128  and  _131
REMARK   58  A    between atoms: _131  and  _132
REMARK   59  A    between atoms: _132  and  _133
REMARK   60  A    between atoms: _138  and  _140
REMARK   61  A    between atoms: _140  and  _141
REMARK   62  A    between atoms: _140  and  _143
REMARK   63  A    between atoms: _143  and  _144
REMARK   64  A    between atoms: _146  and  _148
REMARK   65  A    between atoms: _148  and  _149
REMARK   66  A    between atoms: _148  and  _151
REMARK   67  A    between atoms: _151  and  _152
REMARK   68  A    between atoms: _155  and  _157
REMARK   69  A    between atoms: _157  and  _158
REMARK   70  A    between atoms: _160  and  _162
REMARK   71  A    between atoms: _162  and  _163
REMARK   72  A    between atoms: _162  and  _165
REMARK   73  A    between atoms: _165  and  _166
REMARK   74  A    between atoms: _169  and  _171
REMARK   75  A    between atoms: _171  and  _172
REMARK   76  A    between atoms: _171  and  _174
REMARK   77  A    between atoms: _174  and  _175
REMARK   78  A    between atoms: _175  and  _176
REMARK   79  A    between atoms: _179  and  _181
REMARK   80  A    between atoms: _181  and  _182
REMARK   81  A    between atoms: _181  and  _184
REMARK   82  A    between atoms: _184  and  _185
REMARK   83  A    between atoms: _188  and  _190
REMARK   84  A    between atoms: _190  and  _191
REMARK   85  A    between atoms: _190  and  _193
REMARK   86  A    between atoms: _193  and  _194
REMARK   87  A    between atoms: _197  and  _199
REMARK   88  A    between atoms: _199  and  _200
REMARK   89  A    between atoms: _199  and  _202
REMARK   90  A    between atoms: _202  and  _203
REMARK   91  A    between atoms: _206  and  _208
REMARK   92  A    between atoms: _208  and  _209
REMARK   93  A    between atoms: _208  and  _211
REMARK   94  A    between atoms: _211  and  _212
REMARK   95  A    between atoms: _215  and  _217
REMARK   96  A    between atoms: _217  and  _218
REMARK   97  A    between atoms: _217  and  _220
REMARK   98  A    between atoms: _220  and  _221
REMARK   99  A    between atoms: _224  and  _226
REMARK  100  A    between atoms: _226  and  _227
REMARK  101  A    between atoms: _229  and  _231
REMARK  102  A    between atoms: _231  and  _232
REMARK  103  A    between atoms: _231  and  _234
REMARK  104  A    between atoms: _234  and  _235
REMARK  105  A    between atoms: _235  and  _236
REMARK  106  A    between atoms: _236  and  _237
REMARK  107  A    between atoms: _237  and  _238
REMARK  108  A    between atoms: _242  and  _244
REMARK  109  A    between atoms: _244  and  _245
REMARK  110  A    between atoms: _244  and  _247
REMARK  111  A    between atoms: _247  and  _248
REMARK  112  A    between atoms: _251  and  _253
REMARK  113  A    between atoms: _253  and  _254
REMARK  114  A    between atoms: _253  and  _256
REMARK  115  A    between atoms: _256  and  _257
REMARK  116  A    between atoms: _257  and  _258
REMARK  117  A    between atoms: _260  and  _262
REMARK  118  A    between atoms: _262  and  _263
REMARK  119  A    between atoms: _262  and  _265
REMARK  120  A    between atoms: _265  and  _266
REMARK  121  A    between atoms: _266  and  _267
REMARK  122  A    between atoms: _272  and  _274
REMARK  123  A    between atoms: _274  and  _275
REMARK  124  A    between atoms: _274  and  _277
REMARK  125  A    between atoms: _277  and  _278
REMARK  126  A    between atoms: _281  and  _283
REMARK  127  A    between atoms: _283  and  _284
REMARK  128  A    between atoms: _283  and  _286
REMARK  129  A    between atoms: _286  and  _287
REMARK  130  A    between atoms: _290  and  _292
REMARK  131  A    between atoms: _292  and  _293
REMARK  132  A    between atoms: _292  and  _295
REMARK  133  A    between atoms: _295  and  _296
REMARK  134  A    between atoms: _298  and  _300
REMARK  135  A    between atoms: _300  and  _301
REMARK  136  A    between atoms: _300  and  _303
REMARK  137  A    between atoms: _303  and  _304
REMARK  138  A    between atoms: _307  and  _309
REMARK  139  A    between atoms: _309  and  _310
REMARK  140  A    between atoms: _309  and  _312
REMARK  141  A    between atoms: _312  and  _313
REMARK  142  A    between atoms: _313  and  _314
REMARK  143  A    between atoms: _314  and  _315
REMARK  144  A    between atoms: _315  and  _316
REMARK  145  A    between atoms: _320  and  _322
REMARK  146  A    between atoms: _322  and  _323
REMARK  147  A    between atoms: _322  and  _325
REMARK  148  A    between atoms: _325  and  _326
REMARK  149  A    between atoms: _329  and  _331
REMARK  150  A    between atoms: _331  and  _332
REMARK  151  A    between atoms: _331  and  _334
REMARK  152  A    between atoms: _334  and  _335
REMARK  153  A    between atoms: _335  and  _336
REMARK  154  A    between atoms: _336  and  _337
REMARK  155  A    between atoms: _346  and  _348
REMARK  156  A    between atoms: _348  and  _349
REMARK  157  A    between atoms: _348  and  _351
REMARK  158  A    between atoms: _351  and  _352
REMARK  159  A    between atoms: _354  and  _356
REMARK  160  A    between atoms: _356  and  _357
REMARK  161  A    between atoms: _356  and  _359
REMARK  162  A    between atoms: _362  and  _364
REMARK  163  A    between atoms: _364  and  _365
REMARK  164  A    between atoms: _364  and  _367
REMARK  165  A    between atoms: _367  and  _368
REMARK  166  A    between atoms: _373  and  _374
REMARK  167  A    between atoms: _376  and  _378
REMARK  168  A    between atoms: _378  and  _379
REMARK  169  A    between atoms: _378  and  _381
REMARK  170  A    between atoms: _381  and  _382
REMARK  171  A    between atoms: _386  and  _387
REMARK  172  A    between atoms: _392  and  _394
REMARK  173  A    between atoms: _394  and  _395
REMARK  174  A    between atoms: _394  and  _397
REMARK  175  A    between atoms: _397  and  _398
REMARK  176  A    between atoms: _401  and  _403
REMARK  177  A    between atoms: _403  and  _404
REMARK  178  A    between atoms: _403  and  _406
REMARK  179  A    between atoms: _406  and  _407
REMARK  180  A    between atoms: _407  and  _408
REMARK  181  A    between atoms: _408  and  _409
REMARK  182  A    between atoms: _409  and  _410
REMARK  183  A    between atoms: _414  and  _416
REMARK  184  A    between atoms: _416  and  _417
REMARK  185  A    between atoms: _416  and  _419
REMARK  186  A    between atoms: _419  and  _420
REMARK  187  A    between atoms: _426  and  _428
REMARK  188  A    between atoms: _428  and  _429
REMARK  189  A    between atoms: _428  and  _431
REMARK  190  A    between atoms: _434  and  _436
REMARK  191  A    between atoms: _436  and  _437
REMARK  192  A    between atoms: _436  and  _439
REMARK  193  A    between atoms: _442  and  _444
REMARK  194  A    between atoms: _444  and  _445
REMARK  195  A    between atoms: _447  and  _449
REMARK  196  A    between atoms: _449  and  _450
REMARK  197  A    between atoms: _449  and  _452
REMARK  198  A    between atoms: _452  and  _453
REMARK  199  A    between atoms: _458  and  _459
REMARK  200  A    between atoms: _461  and  _463
REMARK  201  A    between atoms: _463  and  _464
REMARK  202  A    between atoms: _467  and  _469
REMARK  203  A    between atoms: _469  and  _470
REMARK  204  A    between atoms: _469  and  _472
REMARK  205  A    between atoms: _472  and  _473
REMARK  206  A    between atoms: _476  and  _478
REMARK  207  A    between atoms: _478  and  _479
REMARK  208  A    between atoms: _478  and  _481
REMARK  209  A    between atoms: _481  and  _482
REMARK  210  A    between atoms: _482  and  _483
REMARK  211  A    between atoms: _483  and  MG_588
REMARK  212  A    between atoms: _485  and  _487
REMARK  213  A    between atoms: _487  and  _488
REMARK  214  A    between atoms: _487  and  _490
REMARK  215  A    between atoms: _490  and  _491
REMARK  216  A    between atoms: _496  and  _497
REMARK  217  A    between atoms: _499  and  _501
REMARK  218  A    between atoms: _501  and  _502
REMARK  219  A    between atoms: _501  and  _504
REMARK  220  A    between atoms: _504  and  _505
REMARK  221  A    between atoms: _510  and  _512
REMARK  222  A    between atoms: _512  and  _513
REMARK  223  A    between atoms: _512  and  _515
REMARK  224  A    between atoms: _515  and  _516
REMARK  225  A    between atoms: _516  and  _517
REMARK  226  A    between atoms: _520  and  _522
REMARK  227  A    between atoms: _522  and  _523
REMARK  228  A    between atoms: _522  and  _525
REMARK  229  A    between atoms: _525  and  _526
REMARK  230  A    between atoms: _531  and  _532
REMARK  231  A    between atoms: _534  and  _536
REMARK  232  A    between atoms: _536  and  _537
REMARK  233  A    between atoms: _536  and  _539
REMARK  234  A    between atoms: _539  and  _540
REMARK  235  A    between atoms: _546  and  _548
REMARK  236  A    between atoms: _548  and  _549
REMARK  237  A    between atoms: _548  and  _551
REMARK  238  A    between atoms: _551  and  _552
REMARK  239  A    between atoms: _552  and  _553
REMARK  240  A    between atoms: _553  and  _554
REMARK  241  A    between atoms: _563  and  _565
REMARK  242  A    between atoms: _565  and  _566
REMARK  243  A    between atoms: _565  and  _568
REMARK  244  A    between atoms: _571  and  _573
REMARK  245  A    between atoms: _573  and  _574
REMARK  246  A    between atoms: _573  and  _576
REMARK  247  A    between atoms: _578  and  _580
REMARK  248  A    between atoms: _580  and  _581
REMARK  249  A    between atoms: _580  and  _583
REMARK  250  A    between atoms: _583  and  _584
REMARK                            x       y       z     vdW  Elec       q    Type
REMARK                         _______ _______ _______ _____ _____    ______ ____
ROOT
ATOM      1  O   HOH     1       3.171  86.678  38.440  0.00  0.00    +0.000 OA
ENDROOT
TORSDOF 0
