REMARK  Name = ../refined-set-2016/2r1y/2r1y_pocket.pdb
REMARK  141 active torsions:
REMARK  status: ('A' for Active; 'I' for Inactive)
REMARK    1  A    between atoms: _1  and  _3
REMARK    2  A    between atoms: _3  and  _4
REMARK    3  A    between atoms: _3  and  _6
REMARK    4  A    between atoms: _6  and  _7
REMARK    5  A    between atoms: _10  and  _12
REMARK    6  A    between atoms: _12  and  _13
REMARK    7  A    between atoms: _12  and  _15
REMARK    8  A    between atoms: _15  and  _16
REMARK    9  A    between atoms: _21  and  _23
REMARK   10  A    between atoms: _23  and  _24
REMARK   11  A    between atoms: _23  and  _26
REMARK   12  A    between atoms: _26  and  _27
REMARK   13  A    between atoms: _29  and  _31
REMARK   14  A    between atoms: _31  and  _32
REMARK   15  A    between atoms: _31  and  _34
REMARK   16  A    between atoms: _34  and  _35
REMARK   17  A    between atoms: _35  and  _36
REMARK   18  A    between atoms: _36  and  _37
REMARK   19  A    between atoms: _46  and  _48
REMARK   20  A    between atoms: _48  and  _49
REMARK   21  A    between atoms: _48  and  _51
REMARK   22  A    between atoms: _51  and  _52
REMARK   23  A    between atoms: _55  and  _57
REMARK   24  A    between atoms: _57  and  _58
REMARK   25  A    between atoms: _57  and  _60
REMARK   26  A    between atoms: _60  and  _61
REMARK   27  A    between atoms: _66  and  _67
REMARK   28  A    between atoms: _69  and  _71
REMARK   29  A    between atoms: _71  and  _72
REMARK   30  A    between atoms: _71  and  _74
REMARK   31  A    between atoms: _74  and  _75
REMARK   32  A    between atoms: _85  and  _87
REMARK   33  A    between atoms: _87  and  _88
REMARK   34  A    between atoms: _87  and  _90
REMARK   35  A    between atoms: _90  and  _91
REMARK   36  A    between atoms: _91  and  _92
REMARK   37  A    between atoms: _92  and  _93
REMARK   38  A    between atoms: _93  and  _94
REMARK   39  A    between atoms: _98  and  _100
REMARK   40  A    between atoms: _100  and  _101
REMARK   41  A    between atoms: _100  and  _103
REMARK   42  A    between atoms: _103  and  _104
REMARK   43  A    between atoms: _104  and  _105
REMARK   44  A    between atoms: _110  and  _112
REMARK   45  A    between atoms: _112  and  _113
REMARK   46  A    between atoms: _112  and  _115
REMARK   47  A    between atoms: _115  and  _116
REMARK   48  A    between atoms: _118  and  _120
REMARK   49  A    between atoms: _120  and  _121
REMARK   50  A    between atoms: _120  and  _123
REMARK   51  A    between atoms: _123  and  _124
REMARK   52  A    between atoms: _129  and  _130
REMARK   53  A    between atoms: _132  and  _134
REMARK   54  A    between atoms: _134  and  _135
REMARK   55  A    between atoms: _134  and  _137
REMARK   56  A    between atoms: _137  and  _138
REMARK   57  A    between atoms: _143  and  _145
REMARK   58  A    between atoms: _145  and  _146
REMARK   59  A    between atoms: _145  and  _148
REMARK   60  A    between atoms: _148  and  _149
REMARK   61  A    between atoms: _152  and  _154
REMARK   62  A    between atoms: _154  and  _155
REMARK   63  A    between atoms: _154  and  _157
REMARK   64  A    between atoms: _157  and  _158
REMARK   65  A    between atoms: _158  and  _159
REMARK   66  A    between atoms: _159  and  _160
REMARK   67  A    between atoms: _169  and  _171
REMARK   68  A    between atoms: _171  and  _172
REMARK   69  A    between atoms: _171  and  _174
REMARK   70  A    between atoms: _174  and  _175
REMARK   71  A    between atoms: _180  and  _181
REMARK   72  A    between atoms: _183  and  _185
REMARK   73  A    between atoms: _185  and  _186
REMARK   74  A    between atoms: _185  and  _188
REMARK   75  A    between atoms: _188  and  _189
REMARK   76  A    between atoms: _195  and  _197
REMARK   77  A    between atoms: _197  and  _198
REMARK   78  A    between atoms: _197  and  _200
REMARK   79  A    between atoms: _200  and  _201
REMARK   80  A    between atoms: _204  and  _206
REMARK   81  A    between atoms: _206  and  _207
REMARK   82  A    between atoms: _206  and  _209
REMARK   83  A    between atoms: _209  and  _210
REMARK   84  A    between atoms: _210  and  _211
REMARK   85  A    between atoms: _211  and  _212
REMARK   86  A    between atoms: _221  and  _223
REMARK   87  A    between atoms: _223  and  _224
REMARK   88  A    between atoms: _223  and  _226
REMARK   89  A    between atoms: _226  and  _227
REMARK   90  A    between atoms: _232  and  _234
REMARK   91  A    between atoms: _234  and  _235
REMARK   92  A    between atoms: _234  and  _237
REMARK   93  A    between atoms: _237  and  _238
REMARK   94  A    between atoms: _243  and  _245
REMARK   95  A    between atoms: _245  and  _246
REMARK   96  A    between atoms: _245  and  _248
REMARK   97  A    between atoms: _248  and  _249
REMARK   98  A    between atoms: _252  and  _254
REMARK   99  A    between atoms: _254  and  _255
REMARK  100  A    between atoms: _254  and  _257
REMARK  101  A    between atoms: _257  and  _258
REMARK  102  A    between atoms: _258  and  _259
REMARK  103  A    between atoms: _262  and  _264
REMARK  104  A    between atoms: _264  and  _265
REMARK  105  A    between atoms: _264  and  _267
REMARK  106  A    between atoms: _267  and  _268
REMARK  107  A    between atoms: _271  and  _273
REMARK  108  A    between atoms: _273  and  _274
REMARK  109  A    between atoms: _273  and  _276
REMARK  110  A    between atoms: _276  and  _277
REMARK  111  A    between atoms: _282  and  _284
REMARK  112  A    between atoms: _284  and  _285
REMARK  113  A    between atoms: _284  and  _287
REMARK  114  A    between atoms: _287  and  _288
REMARK  115  A    between atoms: _291  and  _293
REMARK  116  A    between atoms: _293  and  _294
REMARK  117  A    between atoms: _296  and  _298
REMARK  118  A    between atoms: _298  and  _299
REMARK  119  A    between atoms: _298  and  _301
REMARK  120  A    between atoms: _301  and  _302
REMARK  121  A    between atoms: _307  and  _308
REMARK  122  A    between atoms: _310  and  _312
REMARK  123  A    between atoms: _312  and  _313
REMARK  124  A    between atoms: _312  and  _315
REMARK  125  A    between atoms: _315  and  _316
REMARK  126  A    between atoms: _321  and  _322
REMARK  127  A    between atoms: _324  and  _326
REMARK  128  A    between atoms: _326  and  _327
REMARK  129  A    between atoms: _326  and  _329
REMARK  130  A    between atoms: _329  and  _330
REMARK  131  A    between atoms: _330  and  _331
REMARK  132  A    between atoms: _334  and  _336
REMARK  133  A    between atoms: _336  and  _337
REMARK  134  A    between atoms: _336  and  _339
REMARK  135  A    between atoms: _339  and  _340
REMARK  136  A    between atoms: _340  and  _341
REMARK  137  A    between atoms: _341  and  _342
REMARK  138  A    between atoms: _351  and  _353
REMARK  139  A    between atoms: _353  and  _354
REMARK  140  A    between atoms: _353  and  _356
REMARK  141  A    between atoms: _356  and  _357
REMARK                            x       y       z     vdW  Elec       q    Type
REMARK                         _______ _______ _______ _____ _____    ______ ____
ROOT
ATOM      1  CA  LEU A   1      27.452 -13.911  -2.808  0.00  0.00    +0.133 C 
ENDROOT
BRANCH   1   2
ATOM      2  N   LEU A   1      27.876 -15.316  -2.948  0.00  0.00    -0.239 NA
ATOM      3  H   LEU A   1      27.221 -16.000  -3.377  0.00  0.00    +0.142 HD
ENDBRANCH   1   2
BRANCH   1   4
ATOM      4  C   LEU A   1      26.611 -13.645  -1.555  0.00  0.00    +0.224 C 
ATOM      5  O   LEU A   1      26.071 -12.543  -1.355  0.00  0.00    -0.287 OA
ENDBRANCH   1   4
BRANCH   1   6
ATOM      6  CB  LEU A   1      26.712 -13.459  -4.067  0.00  0.00    +0.025 C 
BRANCH   6   7
ATOM      7  CG  LEU A   1      27.561 -13.632  -5.342  0.00  0.00    +0.002 C 
ATOM      8  CD2 LEU A   1      28.955 -12.978  -5.232  0.00  0.00    +0.000 C 
ATOM      9  CD1 LEU A   1      26.817 -13.120  -6.571  0.00  0.00    +0.000 C 
ENDBRANCH   6   7
ENDBRANCH   1   6
TORSDOF 4
REMARK  Name = ../refined-set-2016/2r1y/2r1y_pocket.pdb
REMARK  141 active torsions:
REMARK  status: ('A' for Active; 'I' for Inactive)
REMARK    1  A    between atoms: _1  and  _3
REMARK    2  A    between atoms: _3  and  _4
REMARK    3  A    between atoms: _3  and  _6
REMARK    4  A    between atoms: _6  and  _7
REMARK    5  A    between atoms: _10  and  _12
REMARK    6  A    between atoms: _12  and  _13
REMARK    7  A    between atoms: _12  and  _15
REMARK    8  A    between atoms: _15  and  _16
REMARK    9  A    between atoms: _21  and  _23
REMARK   10  A    between atoms: _23  and  _24
REMARK   11  A    between atoms: _23  and  _26
REMARK   12  A    between atoms: _26  and  _27
REMARK   13  A    between atoms: _29  and  _31
REMARK   14  A    between atoms: _31  and  _32
REMARK   15  A    between atoms: _31  and  _34
REMARK   16  A    between atoms: _34  and  _35
REMARK   17  A    between atoms: _35  and  _36
REMARK   18  A    between atoms: _36  and  _37
REMARK   19  A    between atoms: _46  and  _48
REMARK   20  A    between atoms: _48  and  _49
REMARK   21  A    between atoms: _48  and  _51
REMARK   22  A    between atoms: _51  and  _52
REMARK   23  A    between atoms: _55  and  _57
REMARK   24  A    between atoms: _57  and  _58
REMARK   25  A    between atoms: _57  and  _60
REMARK   26  A    between atoms: _60  and  _61
REMARK   27  A    between atoms: _66  and  _67
REMARK   28  A    between atoms: _69  and  _71
REMARK   29  A    between atoms: _71  and  _72
REMARK   30  A    between atoms: _71  and  _74
REMARK   31  A    between atoms: _74  and  _75
REMARK   32  A    between atoms: _85  and  _87
REMARK   33  A    between atoms: _87  and  _88
REMARK   34  A    between atoms: _87  and  _90
REMARK   35  A    between atoms: _90  and  _91
REMARK   36  A    between atoms: _91  and  _92
REMARK   37  A    between atoms: _92  and  _93
REMARK   38  A    between atoms: _93  and  _94
REMARK   39  A    between atoms: _98  and  _100
REMARK   40  A    between atoms: _100  and  _101
REMARK   41  A    between atoms: _100  and  _103
REMARK   42  A    between atoms: _103  and  _104
REMARK   43  A    between atoms: _104  and  _105
REMARK   44  A    between atoms: _110  and  _112
REMARK   45  A    between atoms: _112  and  _113
REMARK   46  A    between atoms: _112  and  _115
REMARK   47  A    between atoms: _115  and  _116
REMARK   48  A    between atoms: _118  and  _120
REMARK   49  A    between atoms: _120  and  _121
REMARK   50  A    between atoms: _120  and  _123
REMARK   51  A    between atoms: _123  and  _124
REMARK   52  A    between atoms: _129  and  _130
REMARK   53  A    between atoms: _132  and  _134
REMARK   54  A    between atoms: _134  and  _135
REMARK   55  A    between atoms: _134  and  _137
REMARK   56  A    between atoms: _137  and  _138
REMARK   57  A    between atoms: _143  and  _145
REMARK   58  A    between atoms: _145  and  _146
REMARK   59  A    between atoms: _145  and  _148
REMARK   60  A    between atoms: _148  and  _149
REMARK   61  A    between atoms: _152  and  _154
REMARK   62  A    between atoms: _154  and  _155
REMARK   63  A    between atoms: _154  and  _157
REMARK   64  A    between atoms: _157  and  _158
REMARK   65  A    between atoms: _158  and  _159
REMARK   66  A    between atoms: _159  and  _160
REMARK   67  A    between atoms: _169  and  _171
REMARK   68  A    between atoms: _171  and  _172
REMARK   69  A    between atoms: _171  and  _174
REMARK   70  A    between atoms: _174  and  _175
REMARK   71  A    between atoms: _180  and  _181
REMARK   72  A    between atoms: _183  and  _185
REMARK   73  A    between atoms: _185  and  _186
REMARK   74  A    between atoms: _185  and  _188
REMARK   75  A    between atoms: _188  and  _189
REMARK   76  A    between atoms: _195  and  _197
REMARK   77  A    between atoms: _197  and  _198
REMARK   78  A    between atoms: _197  and  _200
REMARK   79  A    between atoms: _200  and  _201
REMARK   80  A    between atoms: _204  and  _206
REMARK   81  A    between atoms: _206  and  _207
REMARK   82  A    between atoms: _206  and  _209
REMARK   83  A    between atoms: _209  and  _210
REMARK   84  A    between atoms: _210  and  _211
REMARK   85  A    between atoms: _211  and  _212
REMARK   86  A    between atoms: _221  and  _223
REMARK   87  A    between atoms: _223  and  _224
REMARK   88  A    between atoms: _223  and  _226
REMARK   89  A    between atoms: _226  and  _227
REMARK   90  A    between atoms: _232  and  _234
REMARK   91  A    between atoms: _234  and  _235
REMARK   92  A    between atoms: _234  and  _237
REMARK   93  A    between atoms: _237  and  _238
REMARK   94  A    between atoms: _243  and  _245
REMARK   95  A    between atoms: _245  and  _246
REMARK   96  A    between atoms: _245  and  _248
REMARK   97  A    between atoms: _248  and  _249
REMARK   98  A    between atoms: _252  and  _254
REMARK   99  A    between atoms: _254  and  _255
REMARK  100  A    between atoms: _254  and  _257
REMARK  101  A    between atoms: _257  and  _258
REMARK  102  A    between atoms: _258  and  _259
REMARK  103  A    between atoms: _262  and  _264
REMARK  104  A    between atoms: _264  and  _265
REMARK  105  A    between atoms: _264  and  _267
REMARK  106  A    between atoms: _267  and  _268
REMARK  107  A    between atoms: _271  and  _273
REMARK  108  A    between atoms: _273  and  _274
REMARK  109  A    between atoms: _273  and  _276
REMARK  110  A    between atoms: _276  and  _277
REMARK  111  A    between atoms: _282  and  _284
REMARK  112  A    between atoms: _284  and  _285
REMARK  113  A    between atoms: _284  and  _287
REMARK  114  A    between atoms: _287  and  _288
REMARK  115  A    between atoms: _291  and  _293
REMARK  116  A    between atoms: _293  and  _294
REMARK  117  A    between atoms: _296  and  _298
REMARK  118  A    between atoms: _298  and  _299
REMARK  119  A    between atoms: _298  and  _301
REMARK  120  A    between atoms: _301  and  _302
REMARK  121  A    between atoms: _307  and  _308
REMARK  122  A    between atoms: _310  and  _312
REMARK  123  A    between atoms: _312  and  _313
REMARK  124  A    between atoms: _312  and  _315
REMARK  125  A    between atoms: _315  and  _316
REMARK  126  A    between atoms: _321  and  _322
REMARK  127  A    between atoms: _324  and  _326
REMARK  128  A    between atoms: _326  and  _327
REMARK  129  A    between atoms: _326  and  _329
REMARK  130  A    between atoms: _329  and  _330
REMARK  131  A    between atoms: _330  and  _331
REMARK  132  A    between atoms: _334  and  _336
REMARK  133  A    between atoms: _336  and  _337
REMARK  134  A    between atoms: _336  and  _339
REMARK  135  A    between atoms: _339  and  _340
REMARK  136  A    between atoms: _340  and  _341
REMARK  137  A    between atoms: _341  and  _342
REMARK  138  A    between atoms: _351  and  _353
REMARK  139  A    between atoms: _353  and  _354
REMARK  140  A    between atoms: _353  and  _356
REMARK  141  A    between atoms: _356  and  _357
REMARK                            x       y       z     vdW  Elec       q    Type
REMARK                         _______ _______ _______ _____ _____    ______ ____
ROOT
ATOM      1  CA  ARG A   3      26.035 -10.304   8.266  0.00  0.00    +0.149 C 
ENDROOT
BRANCH   1   4
ATOM      2  C   SER A   2      26.126 -12.599   7.397  0.00  0.00    +0.243 C 
ATOM      3  O   SER A   2      25.304 -13.013   8.219  0.00  0.00    -0.273 OA
ATOM      4  N   ARG A   3      26.507 -11.324   7.329  0.00  0.00    -0.297 N 
ATOM      5  H   ARG A   3      27.168 -11.042   6.578  0.00  0.00    +0.150 HD
BRANCH   2   6
ATOM      6  CA  SER A   2      26.730 -13.551   6.357  0.00  0.00    +0.178 C 
BRANCH   6   8
ATOM      7  C   ASN A   1      26.224 -12.394   4.275  0.00  0.00    +0.239 C 
ATOM      8  N   SER A   2      27.138 -12.894   5.101  0.00  0.00    -0.295 N 
ATOM      9  H   SER A   2      28.147 -12.821   4.860  0.00  0.00    +0.150 HD
ATOM     10  O   ASN A   1      25.030 -12.376   4.544  0.00  0.00    -0.274 OA
BRANCH   7  11
ATOM     11  CA  ASN A   1      26.713 -11.864   2.931  0.00  0.00    +0.154 C 
BRANCH  11  12
ATOM     12  N   ASN A   1      26.100 -12.656   1.874  0.00  0.00    -0.238 NA
ATOM     13  H   ASN A   1      25.333 -12.236   1.311  0.00  0.00    +0.142 HD
ENDBRANCH  11  12
BRANCH  11  14
ATOM     14  CB  ASN A   1      26.379 -10.386   2.742  0.00  0.00    +0.111 C 
BRANCH  14  15
ATOM     15  CG  ASN A   1      27.056  -9.504   3.771  0.00  0.00    +0.221 C 
ATOM     16  OD1 ASN A   1      26.638  -9.471   4.924  0.00  0.00    -0.275 OA
ATOM     17  ND2 ASN A   1      28.103  -8.778   3.357  0.00  0.00    -0.329 N 
ATOM     18 HD21 ASN A   1      28.598  -8.152   4.024  0.00  0.00    +0.145 HD
ATOM     19 HD22 ASN A   1      28.420  -8.840   2.369  0.00  0.00    +0.145 HD
ENDBRANCH  14  15
ENDBRANCH  11  14
ENDBRANCH   7  11
ENDBRANCH   6   8
BRANCH   6  20
ATOM     20  CB  SER A   2      27.870 -14.391   6.956  0.00  0.00    +0.166 C 
BRANCH  20  21
ATOM     21  OG  SER A   2      29.066 -13.650   7.091  0.00  0.00    -0.380 OA
ATOM     22  H   SER A   2      29.769 -14.229   7.479  0.00  0.00    +0.211 HD
ENDBRANCH  20  21
ENDBRANCH   6  20
ENDBRANCH   2   6
ENDBRANCH   1   4
BRANCH   1  23
ATOM     23  C   ARG A   3      24.600  -9.846   7.990  0.00  0.00    +0.241 C 
ATOM     24  O   ARG A   3      23.825  -9.651   8.928  0.00  0.00    -0.273 OA
ATOM     25  N   THR A   4      24.249  -9.669   6.717  0.00  0.00    -0.296 N 
ATOM     26  H   THR A   4      24.953  -9.854   5.974  0.00  0.00    +0.150 HD
BRANCH  25  27
ATOM     27  CA  THR A   4      22.905  -9.223   6.321  0.00  0.00    +0.164 C 
BRANCH  27  28
ATOM     28  CB  THR A   4      22.975  -8.160   5.205  0.00  0.00    +0.136 C 
ATOM     29  CG2 THR A   4      23.757  -6.928   5.674  0.00  0.00    +0.034 C 
BRANCH  28  30
ATOM     30  OG1 THR A   4      23.612  -8.726   4.050  0.00  0.00    -0.382 OA
ATOM     31  HG1 THR A   4      23.658  -8.045   3.333  0.00  0.00    +0.210 HD
ENDBRANCH  28  30
ENDBRANCH  27  28
BRANCH  27  32
ATOM     32  C   THR A   4      21.998 -10.370   5.839  0.00  0.00    +0.229 C 
ATOM     33  O   THR A   4      20.781 -10.181   5.674  0.00  0.00    -0.286 OA
ENDBRANCH  27  32
ENDBRANCH  25  27
ENDBRANCH   1  23
BRANCH   1  34
ATOM     34  CB  ARG A   3      27.002  -9.113   8.274  0.00  0.00    +0.033 C 
BRANCH  34  35
ATOM     35  CG  ARG A   3      26.602  -7.967   9.202  0.00  0.00    +0.045 C 
BRANCH  35  36
ATOM     36  CD  ARG A   3      27.458  -6.729   8.944  0.00  0.00    +0.174 C 
BRANCH  36  37
ATOM     37  NE  ARG A   3      27.326  -6.254   7.563  0.00  0.00    -0.265 N 
ATOM     38  CZ  ARG A   3      27.298  -4.975   7.201  0.00  0.00    +0.342 C 
ATOM     39  NH2 ARG A   3      27.393  -4.010   8.115  0.00  0.00    -0.292 N 
ATOM     40 HH21 ARG A   3      27.490  -4.255   9.121  0.00  0.00    +0.255 HD
ATOM     41 HH22 ARG A   3      27.370  -3.012   7.822  0.00  0.00    +0.255 HD
ATOM     42  NH1 ARG A   3      27.182  -4.653   5.916  0.00  0.00    -0.292 N 
ATOM     43 HH11 ARG A   3      27.160  -3.653   5.630  0.00  0.00    +0.255 HD
ATOM     44 HH12 ARG A   3      27.113  -5.401   5.197  0.00  0.00    +0.255 HD
ATOM     45  HE  ARG A   3      27.249  -6.970   6.812  0.00  0.00    +0.259 HD
ENDBRANCH  36  37
ENDBRANCH  35  36
ENDBRANCH  34  35
ENDBRANCH   1  34
TORSDOF 18
REMARK  Name = ../refined-set-2016/2r1y/2r1y_pocket.pdb
REMARK  141 active torsions:
REMARK  status: ('A' for Active; 'I' for Inactive)
REMARK    1  A    between atoms: _1  and  _3
REMARK    2  A    between atoms: _3  and  _4
REMARK    3  A    between atoms: _3  and  _6
REMARK    4  A    between atoms: _6  and  _7
REMARK    5  A    between atoms: _10  and  _12
REMARK    6  A    between atoms: _12  and  _13
REMARK    7  A    between atoms: _12  and  _15
REMARK    8  A    between atoms: _15  and  _16
REMARK    9  A    between atoms: _21  and  _23
REMARK   10  A    between atoms: _23  and  _24
REMARK   11  A    between atoms: _23  and  _26
REMARK   12  A    between atoms: _26  and  _27
REMARK   13  A    between atoms: _29  and  _31
REMARK   14  A    between atoms: _31  and  _32
REMARK   15  A    between atoms: _31  and  _34
REMARK   16  A    between atoms: _34  and  _35
REMARK   17  A    between atoms: _35  and  _36
REMARK   18  A    between atoms: _36  and  _37
REMARK   19  A    between atoms: _46  and  _48
REMARK   20  A    between atoms: _48  and  _49
REMARK   21  A    between atoms: _48  and  _51
REMARK   22  A    between atoms: _51  and  _52
REMARK   23  A    between atoms: _55  and  _57
REMARK   24  A    between atoms: _57  and  _58
REMARK   25  A    between atoms: _57  and  _60
REMARK   26  A    between atoms: _60  and  _61
REMARK   27  A    between atoms: _66  and  _67
REMARK   28  A    between atoms: _69  and  _71
REMARK   29  A    between atoms: _71  and  _72
REMARK   30  A    between atoms: _71  and  _74
REMARK   31  A    between atoms: _74  and  _75
REMARK   32  A    between atoms: _85  and  _87
REMARK   33  A    between atoms: _87  and  _88
REMARK   34  A    between atoms: _87  and  _90
REMARK   35  A    between atoms: _90  and  _91
REMARK   36  A    between atoms: _91  and  _92
REMARK   37  A    between atoms: _92  and  _93
REMARK   38  A    between atoms: _93  and  _94
REMARK   39  A    between atoms: _98  and  _100
REMARK   40  A    between atoms: _100  and  _101
REMARK   41  A    between atoms: _100  and  _103
REMARK   42  A    between atoms: _103  and  _104
REMARK   43  A    between atoms: _104  and  _105
REMARK   44  A    between atoms: _110  and  _112
REMARK   45  A    between atoms: _112  and  _113
REMARK   46  A    between atoms: _112  and  _115
REMARK   47  A    between atoms: _115  and  _116
REMARK   48  A    between atoms: _118  and  _120
REMARK   49  A    between atoms: _120  and  _121
REMARK   50  A    between atoms: _120  and  _123
REMARK   51  A    between atoms: _123  and  _124
REMARK   52  A    between atoms: _129  and  _130
REMARK   53  A    between atoms: _132  and  _134
REMARK   54  A    between atoms: _134  and  _135
REMARK   55  A    between atoms: _134  and  _137
REMARK   56  A    between atoms: _137  and  _138
REMARK   57  A    between atoms: _143  and  _145
REMARK   58  A    between atoms: _145  and  _146
REMARK   59  A    between atoms: _145  and  _148
REMARK   60  A    between atoms: _148  and  _149
REMARK   61  A    between atoms: _152  and  _154
REMARK   62  A    between atoms: _154  and  _155
REMARK   63  A    between atoms: _154  and  _157
REMARK   64  A    between atoms: _157  and  _158
REMARK   65  A    between atoms: _158  and  _159
REMARK   66  A    between atoms: _159  and  _160
REMARK   67  A    between atoms: _169  and  _171
REMARK   68  A    between atoms: _171  and  _172
REMARK   69  A    between atoms: _171  and  _174
REMARK   70  A    between atoms: _174  and  _175
REMARK   71  A    between atoms: _180  and  _181
REMARK   72  A    between atoms: _183  and  _185
REMARK   73  A    between atoms: _185  and  _186
REMARK   74  A    between atoms: _185  and  _188
REMARK   75  A    between atoms: _188  and  _189
REMARK   76  A    between atoms: _195  and  _197
REMARK   77  A    between atoms: _197  and  _198
REMARK   78  A    between atoms: _197  and  _200
REMARK   79  A    between atoms: _200  and  _201
REMARK   80  A    between atoms: _204  and  _206
REMARK   81  A    between atoms: _206  and  _207
REMARK   82  A    between atoms: _206  and  _209
REMARK   83  A    between atoms: _209  and  _210
REMARK   84  A    between atoms: _210  and  _211
REMARK   85  A    between atoms: _211  and  _212
REMARK   86  A    between atoms: _221  and  _223
REMARK   87  A    between atoms: _223  and  _224
REMARK   88  A    between atoms: _223  and  _226
REMARK   89  A    between atoms: _226  and  _227
REMARK   90  A    between atoms: _232  and  _234
REMARK   91  A    between atoms: _234  and  _235
REMARK   92  A    between atoms: _234  and  _237
REMARK   93  A    between atoms: _237  and  _238
REMARK   94  A    between atoms: _243  and  _245
REMARK   95  A    between atoms: _245  and  _246
REMARK   96  A    between atoms: _245  and  _248
REMARK   97  A    between atoms: _248  and  _249
REMARK   98  A    between atoms: _252  and  _254
REMARK   99  A    between atoms: _254  and  _255
REMARK  100  A    between atoms: _254  and  _257
REMARK  101  A    between atoms: _257  and  _258
REMARK  102  A    between atoms: _258  and  _259
REMARK  103  A    between atoms: _262  and  _264
REMARK  104  A    between atoms: _264  and  _265
REMARK  105  A    between atoms: _264  and  _267
REMARK  106  A    between atoms: _267  and  _268
REMARK  107  A    between atoms: _271  and  _273
REMARK  108  A    between atoms: _273  and  _274
REMARK  109  A    between atoms: _273  and  _276
REMARK  110  A    between atoms: _276  and  _277
REMARK  111  A    between atoms: _282  and  _284
REMARK  112  A    between atoms: _284  and  _285
REMARK  113  A    between atoms: _284  and  _287
REMARK  114  A    between atoms: _287  and  _288
REMARK  115  A    between atoms: _291  and  _293
REMARK  116  A    between atoms: _293  and  _294
REMARK  117  A    between atoms: _296  and  _298
REMARK  118  A    between atoms: _298  and  _299
REMARK  119  A    between atoms: _298  and  _301
REMARK  120  A    between atoms: _301  and  _302
REMARK  121  A    between atoms: _307  and  _308
REMARK  122  A    between atoms: _310  and  _312
REMARK  123  A    between atoms: _312  and  _313
REMARK  124  A    between atoms: _312  and  _315
REMARK  125  A    between atoms: _315  and  _316
REMARK  126  A    between atoms: _321  and  _322
REMARK  127  A    between atoms: _324  and  _326
REMARK  128  A    between atoms: _326  and  _327
REMARK  129  A    between atoms: _326  and  _329
REMARK  130  A    between atoms: _329  and  _330
REMARK  131  A    between atoms: _330  and  _331
REMARK  132  A    between atoms: _334  and  _336
REMARK  133  A    between atoms: _336  and  _337
REMARK  134  A    between atoms: _336  and  _339
REMARK  135  A    between atoms: _339  and  _340
REMARK  136  A    between atoms: _340  and  _341
REMARK  137  A    between atoms: _341  and  _342
REMARK  138  A    between atoms: _351  and  _353
REMARK  139  A    between atoms: _353  and  _354
REMARK  140  A    between atoms: _353  and  _356
REMARK  141  A    between atoms: _356  and  _357
REMARK                            x       y       z     vdW  Elec       q    Type
REMARK                         _______ _______ _______ _____ _____    ______ ____
ROOT
ATOM      1  CG  TYR A   1      25.436  -8.292  -1.343  0.00  0.00    -0.020 A 
ATOM      2  CD2 TYR A   1      24.305  -8.589  -0.572  0.00  0.00    -0.001 A 
ATOM      3  CE2 TYR A   1      24.206  -8.166   0.772  0.00  0.00    +0.036 A 
ATOM      4  CZ  TYR A   1      25.236  -7.416   1.310  0.00  0.00    +0.134 A 
ATOM      5  CE1 TYR A   1      26.364  -7.088   0.549  0.00  0.00    +0.036 A 
ATOM      6  CD1 TYR A   1      26.450  -7.522  -0.780  0.00  0.00    -0.001 A 
ENDROOT
BRANCH   4   7
ATOM      7  OH  TYR A   1      25.154  -7.005   2.631  0.00  0.00    -0.506 OA
ATOM      8  HH  TYR A   1      25.962  -6.482   2.863  0.00  0.00    +0.292 HD
ENDBRANCH   4   7
BRANCH   1   9
ATOM      9  CB  TYR A   1      25.543  -8.768  -2.786  0.00  0.00    +0.051 C 
BRANCH   9  10
ATOM     10  CA  TYR A   1      24.288  -9.459  -3.326  0.00  0.00    +0.137 C 
BRANCH  10  11
ATOM     11  N   TYR A   1      24.065 -10.767  -2.671  0.00  0.00    -0.239 NA
ATOM     12  H   TYR A   1      24.881 -11.316  -2.332  0.00  0.00    +0.142 HD
ENDBRANCH  10  11
BRANCH  10  13
ATOM     13  C   TYR A   1      24.378  -9.684  -4.835  0.00  0.00    +0.224 C 
ATOM     14  O   TYR A   1      25.446  -9.565  -5.449  0.00  0.00    -0.287 OA
ENDBRANCH  10  13
ENDBRANCH   9  10
ENDBRANCH   1   9
TORSDOF 5
REMARK  Name = ../refined-set-2016/2r1y/2r1y_pocket.pdb
REMARK  141 active torsions:
REMARK  status: ('A' for Active; 'I' for Inactive)
REMARK    1  A    between atoms: _1  and  _3
REMARK    2  A    between atoms: _3  and  _4
REMARK    3  A    between atoms: _3  and  _6
REMARK    4  A    between atoms: _6  and  _7
REMARK    5  A    between atoms: _10  and  _12
REMARK    6  A    between atoms: _12  and  _13
REMARK    7  A    between atoms: _12  and  _15
REMARK    8  A    between atoms: _15  and  _16
REMARK    9  A    between atoms: _21  and  _23
REMARK   10  A    between atoms: _23  and  _24
REMARK   11  A    between atoms: _23  and  _26
REMARK   12  A    between atoms: _26  and  _27
REMARK   13  A    between atoms: _29  and  _31
REMARK   14  A    between atoms: _31  and  _32
REMARK   15  A    between atoms: _31  and  _34
REMARK   16  A    between atoms: _34  and  _35
REMARK   17  A    between atoms: _35  and  _36
REMARK   18  A    between atoms: _36  and  _37
REMARK   19  A    between atoms: _46  and  _48
REMARK   20  A    between atoms: _48  and  _49
REMARK   21  A    between atoms: _48  and  _51
REMARK   22  A    between atoms: _51  and  _52
REMARK   23  A    between atoms: _55  and  _57
REMARK   24  A    between atoms: _57  and  _58
REMARK   25  A    between atoms: _57  and  _60
REMARK   26  A    between atoms: _60  and  _61
REMARK   27  A    between atoms: _66  and  _67
REMARK   28  A    between atoms: _69  and  _71
REMARK   29  A    between atoms: _71  and  _72
REMARK   30  A    between atoms: _71  and  _74
REMARK   31  A    between atoms: _74  and  _75
REMARK   32  A    between atoms: _85  and  _87
REMARK   33  A    between atoms: _87  and  _88
REMARK   34  A    between atoms: _87  and  _90
REMARK   35  A    between atoms: _90  and  _91
REMARK   36  A    between atoms: _91  and  _92
REMARK   37  A    between atoms: _92  and  _93
REMARK   38  A    between atoms: _93  and  _94
REMARK   39  A    between atoms: _98  and  _100
REMARK   40  A    between atoms: _100  and  _101
REMARK   41  A    between atoms: _100  and  _103
REMARK   42  A    between atoms: _103  and  _104
REMARK   43  A    between atoms: _104  and  _105
REMARK   44  A    between atoms: _110  and  _112
REMARK   45  A    between atoms: _112  and  _113
REMARK   46  A    between atoms: _112  and  _115
REMARK   47  A    between atoms: _115  and  _116
REMARK   48  A    between atoms: _118  and  _120
REMARK   49  A    between atoms: _120  and  _121
REMARK   50  A    between atoms: _120  and  _123
REMARK   51  A    between atoms: _123  and  _124
REMARK   52  A    between atoms: _129  and  _130
REMARK   53  A    between atoms: _132  and  _134
REMARK   54  A    between atoms: _134  and  _135
REMARK   55  A    between atoms: _134  and  _137
REMARK   56  A    between atoms: _137  and  _138
REMARK   57  A    between atoms: _143  and  _145
REMARK   58  A    between atoms: _145  and  _146
REMARK   59  A    between atoms: _145  and  _148
REMARK   60  A    between atoms: _148  and  _149
REMARK   61  A    between atoms: _152  and  _154
REMARK   62  A    between atoms: _154  and  _155
REMARK   63  A    between atoms: _154  and  _157
REMARK   64  A    between atoms: _157  and  _158
REMARK   65  A    between atoms: _158  and  _159
REMARK   66  A    between atoms: _159  and  _160
REMARK   67  A    between atoms: _169  and  _171
REMARK   68  A    between atoms: _171  and  _172
REMARK   69  A    between atoms: _171  and  _174
REMARK   70  A    between atoms: _174  and  _175
REMARK   71  A    between atoms: _180  and  _181
REMARK   72  A    between atoms: _183  and  _185
REMARK   73  A    between atoms: _185  and  _186
REMARK   74  A    between atoms: _185  and  _188
REMARK   75  A    between atoms: _188  and  _189
REMARK   76  A    between atoms: _195  and  _197
REMARK   77  A    between atoms: _197  and  _198
REMARK   78  A    between atoms: _197  and  _200
REMARK   79  A    between atoms: _200  and  _201
REMARK   80  A    between atoms: _204  and  _206
REMARK   81  A    between atoms: _206  and  _207
REMARK   82  A    between atoms: _206  and  _209
REMARK   83  A    between atoms: _209  and  _210
REMARK   84  A    between atoms: _210  and  _211
REMARK   85  A    between atoms: _211  and  _212
REMARK   86  A    between atoms: _221  and  _223
REMARK   87  A    between atoms: _223  and  _224
REMARK   88  A    between atoms: _223  and  _226
REMARK   89  A    between atoms: _226  and  _227
REMARK   90  A    between atoms: _232  and  _234
REMARK   91  A    between atoms: _234  and  _235
REMARK   92  A    between atoms: _234  and  _237
REMARK   93  A    between atoms: _237  and  _238
REMARK   94  A    between atoms: _243  and  _245
REMARK   95  A    between atoms: _245  and  _246
REMARK   96  A    between atoms: _245  and  _248
REMARK   97  A    between atoms: _248  and  _249
REMARK   98  A    between atoms: _252  and  _254
REMARK   99  A    between atoms: _254  and  _255
REMARK  100  A    between atoms: _254  and  _257
REMARK  101  A    between atoms: _257  and  _258
REMARK  102  A    between atoms: _258  and  _259
REMARK  103  A    between atoms: _262  and  _264
REMARK  104  A    between atoms: _264  and  _265
REMARK  105  A    between atoms: _264  and  _267
REMARK  106  A    between atoms: _267  and  _268
REMARK  107  A    between atoms: _271  and  _273
REMARK  108  A    between atoms: _273  and  _274
REMARK  109  A    between atoms: _273  and  _276
REMARK  110  A    between atoms: _276  and  _277
REMARK  111  A    between atoms: _282  and  _284
REMARK  112  A    between atoms: _284  and  _285
REMARK  113  A    between atoms: _284  and  _287
REMARK  114  A    between atoms: _287  and  _288
REMARK  115  A    between atoms: _291  and  _293
REMARK  116  A    between atoms: _293  and  _294
REMARK  117  A    between atoms: _296  and  _298
REMARK  118  A    between atoms: _298  and  _299
REMARK  119  A    between atoms: _298  and  _301
REMARK  120  A    between atoms: _301  and  _302
REMARK  121  A    between atoms: _307  and  _308
REMARK  122  A    between atoms: _310  and  _312
REMARK  123  A    between atoms: _312  and  _313
REMARK  124  A    between atoms: _312  and  _315
REMARK  125  A    between atoms: _315  and  _316
REMARK  126  A    between atoms: _321  and  _322
REMARK  127  A    between atoms: _324  and  _326
REMARK  128  A    between atoms: _326  and  _327
REMARK  129  A    between atoms: _326  and  _329
REMARK  130  A    between atoms: _329  and  _330
REMARK  131  A    between atoms: _330  and  _331
REMARK  132  A    between atoms: _334  and  _336
REMARK  133  A    between atoms: _336  and  _337
REMARK  134  A    between atoms: _336  and  _339
REMARK  135  A    between atoms: _339  and  _340
REMARK  136  A    between atoms: _340  and  _341
REMARK  137  A    between atoms: _341  and  _342
REMARK  138  A    between atoms: _351  and  _353
REMARK  139  A    between atoms: _353  and  _354
REMARK  140  A    between atoms: _353  and  _356
REMARK  141  A    between atoms: _356  and  _357
REMARK                            x       y       z     vdW  Elec       q    Type
REMARK                         _______ _______ _______ _____ _____    ______ ____
ROOT
ATOM      1  CG  TRP A   1      18.790  -7.593  -1.461  0.00  0.00    -0.002 A 
ATOM      2  CD2 TRP A   1      18.006  -6.615  -0.753  0.00  0.00    +0.013 A 
ATOM      3  CE2 TRP A   1      18.906  -5.728  -0.134  0.00  0.00    +0.056 A 
ATOM      4  CZ2 TRP A   1      18.478  -4.640   0.642  0.00  0.00    +0.017 A 
ATOM      5  CH2 TRP A   1      17.121  -4.441   0.777  0.00  0.00    +0.001 A 
ATOM      6  CZ3 TRP A   1      16.199  -5.293   0.185  0.00  0.00    +0.000 A 
ATOM      7  NE1 TRP A   1      20.176  -6.152  -0.427  0.00  0.00    -0.352 N 
ATOM      8  HE1 TRP A   1      21.054  -5.693  -0.112  0.00  0.00    +0.166 HD
ATOM      9  CE3 TRP A   1      16.629  -6.400  -0.594  0.00  0.00    +0.001 A 
ATOM     10  CD1 TRP A   1      20.100  -7.288  -1.209  0.00  0.00    +0.068 A 
ENDROOT
BRANCH   1  11
ATOM     11  CB  TRP A   1      18.266  -8.754  -2.239  0.00  0.00    +0.053 C 
BRANCH  11  12
ATOM     12  CA  TRP A   1      19.125  -9.228  -3.424  0.00  0.00    +0.137 C 
BRANCH  12  13
ATOM     13  N   TRP A   1      19.062  -8.307  -4.567  0.00  0.00    -0.239 NA
ATOM     14  H   TRP A   1      19.900  -7.736  -4.799  0.00  0.00    +0.142 HD
ENDBRANCH  12  13
BRANCH  12  15
ATOM     15  C   TRP A   1      18.657 -10.618  -3.870  0.00  0.00    +0.224 C 
ATOM     16  O   TRP A   1      17.951 -11.319  -3.129  0.00  0.00    -0.287 OA
ENDBRANCH  12  15
ENDBRANCH  11  12
ENDBRANCH   1  11
TORSDOF 4
REMARK  Name = ../refined-set-2016/2r1y/2r1y_pocket.pdb
REMARK  141 active torsions:
REMARK  status: ('A' for Active; 'I' for Inactive)
REMARK    1  A    between atoms: _1  and  _3
REMARK    2  A    between atoms: _3  and  _4
REMARK    3  A    between atoms: _3  and  _6
REMARK    4  A    between atoms: _6  and  _7
REMARK    5  A    between atoms: _10  and  _12
REMARK    6  A    between atoms: _12  and  _13
REMARK    7  A    between atoms: _12  and  _15
REMARK    8  A    between atoms: _15  and  _16
REMARK    9  A    between atoms: _21  and  _23
REMARK   10  A    between atoms: _23  and  _24
REMARK   11  A    between atoms: _23  and  _26
REMARK   12  A    between atoms: _26  and  _27
REMARK   13  A    between atoms: _29  and  _31
REMARK   14  A    between atoms: _31  and  _32
REMARK   15  A    between atoms: _31  and  _34
REMARK   16  A    between atoms: _34  and  _35
REMARK   17  A    between atoms: _35  and  _36
REMARK   18  A    between atoms: _36  and  _37
REMARK   19  A    between atoms: _46  and  _48
REMARK   20  A    between atoms: _48  and  _49
REMARK   21  A    between atoms: _48  and  _51
REMARK   22  A    between atoms: _51  and  _52
REMARK   23  A    between atoms: _55  and  _57
REMARK   24  A    between atoms: _57  and  _58
REMARK   25  A    between atoms: _57  and  _60
REMARK   26  A    between atoms: _60  and  _61
REMARK   27  A    between atoms: _66  and  _67
REMARK   28  A    between atoms: _69  and  _71
REMARK   29  A    between atoms: _71  and  _72
REMARK   30  A    between atoms: _71  and  _74
REMARK   31  A    between atoms: _74  and  _75
REMARK   32  A    between atoms: _85  and  _87
REMARK   33  A    between atoms: _87  and  _88
REMARK   34  A    between atoms: _87  and  _90
REMARK   35  A    between atoms: _90  and  _91
REMARK   36  A    between atoms: _91  and  _92
REMARK   37  A    between atoms: _92  and  _93
REMARK   38  A    between atoms: _93  and  _94
REMARK   39  A    between atoms: _98  and  _100
REMARK   40  A    between atoms: _100  and  _101
REMARK   41  A    between atoms: _100  and  _103
REMARK   42  A    between atoms: _103  and  _104
REMARK   43  A    between atoms: _104  and  _105
REMARK   44  A    between atoms: _110  and  _112
REMARK   45  A    between atoms: _112  and  _113
REMARK   46  A    between atoms: _112  and  _115
REMARK   47  A    between atoms: _115  and  _116
REMARK   48  A    between atoms: _118  and  _120
REMARK   49  A    between atoms: _120  and  _121
REMARK   50  A    between atoms: _120  and  _123
REMARK   51  A    between atoms: _123  and  _124
REMARK   52  A    between atoms: _129  and  _130
REMARK   53  A    between atoms: _132  and  _134
REMARK   54  A    between atoms: _134  and  _135
REMARK   55  A    between atoms: _134  and  _137
REMARK   56  A    between atoms: _137  and  _138
REMARK   57  A    between atoms: _143  and  _145
REMARK   58  A    between atoms: _145  and  _146
REMARK   59  A    between atoms: _145  and  _148
REMARK   60  A    between atoms: _148  and  _149
REMARK   61  A    between atoms: _152  and  _154
REMARK   62  A    between atoms: _154  and  _155
REMARK   63  A    between atoms: _154  and  _157
REMARK   64  A    between atoms: _157  and  _158
REMARK   65  A    between atoms: _158  and  _159
REMARK   66  A    between atoms: _159  and  _160
REMARK   67  A    between atoms: _169  and  _171
REMARK   68  A    between atoms: _171  and  _172
REMARK   69  A    between atoms: _171  and  _174
REMARK   70  A    between atoms: _174  and  _175
REMARK   71  A    between atoms: _180  and  _181
REMARK   72  A    between atoms: _183  and  _185
REMARK   73  A    between atoms: _185  and  _186
REMARK   74  A    between atoms: _185  and  _188
REMARK   75  A    between atoms: _188  and  _189
REMARK   76  A    between atoms: _195  and  _197
REMARK   77  A    between atoms: _197  and  _198
REMARK   78  A    between atoms: _197  and  _200
REMARK   79  A    between atoms: _200  and  _201
REMARK   80  A    between atoms: _204  and  _206
REMARK   81  A    between atoms: _206  and  _207
REMARK   82  A    between atoms: _206  and  _209
REMARK   83  A    between atoms: _209  and  _210
REMARK   84  A    between atoms: _210  and  _211
REMARK   85  A    between atoms: _211  and  _212
REMARK   86  A    between atoms: _221  and  _223
REMARK   87  A    between atoms: _223  and  _224
REMARK   88  A    between atoms: _223  and  _226
REMARK   89  A    between atoms: _226  and  _227
REMARK   90  A    between atoms: _232  and  _234
REMARK   91  A    between atoms: _234  and  _235
REMARK   92  A    between atoms: _234  and  _237
REMARK   93  A    between atoms: _237  and  _238
REMARK   94  A    between atoms: _243  and  _245
REMARK   95  A    between atoms: _245  and  _246
REMARK   96  A    between atoms: _245  and  _248
REMARK   97  A    between atoms: _248  and  _249
REMARK   98  A    between atoms: _252  and  _254
REMARK   99  A    between atoms: _254  and  _255
REMARK  100  A    between atoms: _254  and  _257
REMARK  101  A    between atoms: _257  and  _258
REMARK  102  A    between atoms: _258  and  _259
REMARK  103  A    between atoms: _262  and  _264
REMARK  104  A    between atoms: _264  and  _265
REMARK  105  A    between atoms: _264  and  _267
REMARK  106  A    between atoms: _267  and  _268
REMARK  107  A    between atoms: _271  and  _273
REMARK  108  A    between atoms: _273  and  _274
REMARK  109  A    between atoms: _273  and  _276
REMARK  110  A    between atoms: _276  and  _277
REMARK  111  A    between atoms: _282  and  _284
REMARK  112  A    between atoms: _284  and  _285
REMARK  113  A    between atoms: _284  and  _287
REMARK  114  A    between atoms: _287  and  _288
REMARK  115  A    between atoms: _291  and  _293
REMARK  116  A    between atoms: _293  and  _294
REMARK  117  A    between atoms: _296  and  _298
REMARK  118  A    between atoms: _298  and  _299
REMARK  119  A    between atoms: _298  and  _301
REMARK  120  A    between atoms: _301  and  _302
REMARK  121  A    between atoms: _307  and  _308
REMARK  122  A    between atoms: _310  and  _312
REMARK  123  A    between atoms: _312  and  _313
REMARK  124  A    between atoms: _312  and  _315
REMARK  125  A    between atoms: _315  and  _316
REMARK  126  A    between atoms: _321  and  _322
REMARK  127  A    between atoms: _324  and  _326
REMARK  128  A    between atoms: _326  and  _327
REMARK  129  A    between atoms: _326  and  _329
REMARK  130  A    between atoms: _329  and  _330
REMARK  131  A    between atoms: _330  and  _331
REMARK  132  A    between atoms: _334  and  _336
REMARK  133  A    between atoms: _336  and  _337
REMARK  134  A    between atoms: _336  and  _339
REMARK  135  A    between atoms: _339  and  _340
REMARK  136  A    between atoms: _340  and  _341
REMARK  137  A    between atoms: _341  and  _342
REMARK  138  A    between atoms: _351  and  _353
REMARK  139  A    between atoms: _353  and  _354
REMARK  140  A    between atoms: _353  and  _356
REMARK  141  A    between atoms: _356  and  _357
REMARK                            x       y       z     vdW  Elec       q    Type
REMARK                         _______ _______ _______ _____ _____    ______ ____
ROOT
ATOM      1  CA  TYR A   4      29.558  -8.511  -2.681  0.00  0.00    +0.153 C 
ENDROOT
BRANCH   1   2
ATOM      2  C   TYR A   4      30.931  -7.894  -2.404  0.00  0.00    +0.241 C 
ATOM      3  O   TYR A   4      31.250  -7.565  -1.254  0.00  0.00    -0.273 OA
ATOM      4  N   ASN A   5      31.721  -7.746  -3.473  0.00  0.00    -0.297 N 
ATOM      5  H   ASN A   5      31.348  -8.048  -4.396  0.00  0.00    +0.150 HD
BRANCH   4   6
ATOM      6  CA  ASN A   5      33.068  -7.191  -3.434  0.00  0.00    +0.158 C 
BRANCH   6   7
ATOM      7  C   ASN A   5      33.238  -6.280  -4.653  0.00  0.00    +0.241 C 
ATOM      8  N   LEU A   6      33.205  -4.965  -4.409  0.00  0.00    -0.297 N 
ATOM      9  H   LEU A   6      33.292  -4.615  -3.434  0.00  0.00    +0.150 HD
ATOM     10  O   ASN A   5      33.367  -6.766  -5.786  0.00  0.00    -0.273 OA
BRANCH   8  11
ATOM     11  CA  LEU A   6      33.044  -4.007  -5.530  0.00  0.00    +0.149 C 
BRANCH  11  12
ATOM     12  C   LEU A   6      31.838  -4.471  -6.405  0.00  0.00    +0.241 C 
ATOM     13  O   LEU A   6      30.777  -4.827  -5.845  0.00  0.00    -0.273 OA
ATOM     14  N   ARG A   7      31.962  -4.459  -7.733  0.00  0.00    -0.298 N 
ATOM     15  H   ARG A   7      32.831  -4.087  -8.168  0.00  0.00    +0.150 HD
BRANCH  14  16
ATOM     16  CA  ARG A   7      30.867  -4.973  -8.595  0.00  0.00    +0.137 C 
BRANCH  16  17
ATOM     17  C   ARG A   7      31.478  -5.600  -9.833  0.00  0.00    +0.227 C 
ATOM     18  O   ARG A   7      32.536  -5.156 -10.319  0.00  0.00    -0.286 OA
ENDBRANCH  16  17
BRANCH  16  19
ATOM     19  CB  ARG A   7      29.871  -3.878  -9.025  0.00  0.00    +0.031 C 
BRANCH  19  20
ATOM     20  CG  ARG A   7      29.065  -3.181  -7.915  0.00  0.00    +0.045 C 
BRANCH  20  21
ATOM     21  CD  ARG A   7      29.885  -2.075  -7.224  0.00  0.00    +0.174 C 
BRANCH  21  22
ATOM     22  NE  ARG A   7      29.064  -1.324  -6.248  0.00  0.00    -0.265 N 
ATOM     23  CZ  ARG A   7      28.879  -1.688  -4.967  0.00  0.00    +0.342 C 
ATOM     24  NH2 ARG A   7      28.129  -0.924  -4.157  0.00  0.00    -0.292 N 
ATOM     25 HH21 ARG A   7      27.984  -1.203  -3.166  0.00  0.00    +0.255 HD
ATOM     26 HH22 ARG A   7      27.693  -0.053  -4.521  0.00  0.00    +0.255 HD
ATOM     27  NH1 ARG A   7      29.459  -2.795  -4.476  0.00  0.00    -0.292 N 
ATOM     28 HH11 ARG A   7      29.307  -3.065  -3.483  0.00  0.00    +0.255 HD
ATOM     29 HH12 ARG A   7      30.060  -3.383  -5.089  0.00  0.00    +0.255 HD
ATOM     30  HE  ARG A   7      28.598  -0.454  -6.576  0.00  0.00    +0.259 HD
ENDBRANCH  21  22
ENDBRANCH  20  21
ENDBRANCH  19  20
ENDBRANCH  16  19
ENDBRANCH  14  16
ENDBRANCH  11  12
BRANCH  11  31
ATOM     31  CB  LEU A   6      34.378  -3.805  -6.284  0.00  0.00    +0.029 C 
BRANCH  31  32
ATOM     32  CG  LEU A   6      35.601  -3.375  -5.423  0.00  0.00    +0.002 C 
ATOM     33  CD2 LEU A   6      35.272  -2.148  -4.585  0.00  0.00    +0.000 C 
ATOM     34  CD1 LEU A   6      36.853  -3.119  -6.243  0.00  0.00    +0.000 C 
ENDBRANCH  31  32
ENDBRANCH  11  31
ENDBRANCH   8  11
ENDBRANCH   6   7
BRANCH   6  35
ATOM     35  CB  ASN A   5      34.121  -8.310  -3.403  0.00  0.00    +0.114 C 
BRANCH  35  36
ATOM     36  CG  ASN A   5      35.525  -7.802  -3.125  0.00  0.00    +0.222 C 
ATOM     37  OD1 ASN A   5      36.298  -8.461  -2.408  0.00  0.00    -0.275 OA
ATOM     38  ND2 ASN A   5      35.858  -6.637  -3.648  0.00  0.00    -0.329 N 
ATOM     39 HD21 ASN A   5      36.800  -6.235  -3.466  0.00  0.00    +0.145 HD
ATOM     40 HD22 ASN A   5      35.179  -6.120  -4.242  0.00  0.00    +0.145 HD
ENDBRANCH  35  36
ENDBRANCH   6  35
ENDBRANCH   4   6
ENDBRANCH   1   2
BRANCH   1  43
ATOM     41  C   SER A   3      28.587  -6.715  -4.035  0.00  0.00    +0.243 C 
ATOM     42  O   SER A   3      28.633  -5.892  -3.097  0.00  0.00    -0.273 OA
ATOM     43  N   TYR A   4      28.989  -7.983  -3.915  0.00  0.00    -0.297 N 
ATOM     44  H   TYR A   4      28.892  -8.618  -4.733  0.00  0.00    +0.150 HD
BRANCH  41  45
ATOM     45  CA  SER A   3      28.046  -6.321  -5.432  0.00  0.00    +0.178 C 
BRANCH  45  47
ATOM     46  C   GLN A   2      27.924  -7.786  -7.394  0.00  0.00    +0.241 C 
ATOM     47  N   SER A   3      27.575  -7.525  -6.133  0.00  0.00    -0.295 N 
ATOM     48  H   SER A   3      26.953  -8.191  -5.632  0.00  0.00    +0.150 HD
ATOM     49  O   GLN A   2      28.583  -7.017  -8.099  0.00  0.00    -0.273 OA
BRANCH  46  50
ATOM     50  CA  GLN A   2      27.465  -9.124  -7.962  0.00  0.00    +0.149 C 
BRANCH  50  53
ATOM     51  C   LYS A   1      25.975  -8.660  -9.871  0.00  0.00    +0.238 C 
ATOM     52  O   LYS A   1      24.981  -8.549  -9.138  0.00  0.00    -0.274 OA
ATOM     53  N   GLN A   2      27.203  -8.952  -9.425  0.00  0.00    -0.297 N 
ATOM     54  H   GLN A   2      27.984  -9.061 -10.103  0.00  0.00    +0.150 HD
BRANCH  51  55
ATOM     55  CA  LYS A   1      25.837  -8.390 -11.376  0.00  0.00    +0.145 C 
BRANCH  55  56
ATOM     56  N   LYS A   1      24.774  -9.226 -11.888  0.00  0.00    -0.238 NA
ATOM     57  H   LYS A   1      23.987  -9.493 -11.263  0.00  0.00    +0.142 HD
ENDBRANCH  55  56
BRANCH  55  58
ATOM     58  CB  LYS A   1      25.456  -6.928 -11.595  0.00  0.00    +0.026 C 
BRANCH  58  59
ATOM     59  CG  LYS A   1      26.536  -5.933 -11.187  0.00  0.00    -0.000 C 
BRANCH  59  60
ATOM     60  CD  LYS A   1      25.912  -4.627 -10.660  0.00  0.00    -0.024 C 
BRANCH  60  61
ATOM     61  CE  LYS A   1      25.237  -4.894  -9.321  0.00  0.00    -0.086 C 
BRANCH  61  62
ATOM     62  NZ  LYS A   1      24.363  -3.808  -8.901  0.00  0.00    +0.380 N 
ATOM     63  HZ1 LYS A   1      23.932  -4.046  -7.985  0.00  0.00    -0.089 HD
ATOM     64  HZ2 LYS A   1      24.919  -2.934  -8.808  0.00  0.00    -0.089 HD
ATOM     65  HZ3 LYS A   1      23.616  -3.671  -9.612  0.00  0.00    -0.089 HD
ENDBRANCH  61  62
ENDBRANCH  60  61
ENDBRANCH  59  60
ENDBRANCH  58  59
ENDBRANCH  55  58
ENDBRANCH  51  55
ENDBRANCH  50  53
BRANCH  50  66
ATOM     66  CB  GLN A   2      28.552 -10.163  -7.692  0.00  0.00    +0.039 C 
BRANCH  66  67
ATOM     67  CG  GLN A   2      29.922  -9.784  -8.169  0.00  0.00    +0.087 C 
BRANCH  67  68
ATOM     68  CD  GLN A   2      30.756  -8.997  -7.182  0.00  0.00    +0.219 C 
ATOM     69  OE1 GLN A   2      30.469  -8.969  -5.989  0.00  0.00    -0.275 OA
ATOM     70  NE2 GLN A   2      31.817  -8.365  -7.682  0.00  0.00    -0.329 N 
ATOM     71 HE21 GLN A   2      32.441  -7.820  -7.054  0.00  0.00    +0.145 HD
ATOM     72 HE22 GLN A   2      32.021  -8.417  -8.700  0.00  0.00    +0.145 HD
ENDBRANCH  67  68
ENDBRANCH  66  67
ENDBRANCH  50  66
ENDBRANCH  46  50
ENDBRANCH  45  47
BRANCH  45  73
ATOM     73  CB  SER A   3      26.936  -5.251  -5.383  0.00  0.00    +0.166 C 
BRANCH  73  74
ATOM     74  OG  SER A   3      25.782  -5.706  -4.712  0.00  0.00    -0.380 OA
ATOM     75  H   SER A   3      25.422  -6.501  -5.180  0.00  0.00    +0.211 HD
ENDBRANCH  73  74
ENDBRANCH  45  73
ENDBRANCH  41  45
ENDBRANCH   1  43
BRANCH   1  76
ATOM     76  CB  TYR A   4      29.710 -10.032  -2.836  0.00  0.00    +0.055 C 
BRANCH  76  77
ATOM     77  CG  TYR A   4      30.141 -10.758  -1.583  0.00  0.00    -0.020 A 
ATOM     78  CD2 TYR A   4      29.193 -11.314  -0.720  0.00  0.00    -0.001 A 
ATOM     79  CE2 TYR A   4      29.593 -11.986   0.436  0.00  0.00    +0.036 A 
ATOM     80  CZ  TYR A   4      30.954 -12.131   0.704  0.00  0.00    +0.134 A 
ATOM     81  CE1 TYR A   4      31.916 -11.593  -0.141  0.00  0.00    +0.036 A 
ATOM     82  CD1 TYR A   4      31.497 -10.916  -1.286  0.00  0.00    -0.001 A 
BRANCH  80  83
ATOM     83  OH  TYR A   4      31.376 -12.800   1.846  0.00  0.00    -0.506 OA
ATOM     84  HH  TYR A   4      31.944 -13.568   1.586  0.00  0.00    +0.292 HD
ENDBRANCH  80  83
ENDBRANCH  76  77
ENDBRANCH   1  76
TORSDOF 35
REMARK  Name = ../refined-set-2016/2r1y/2r1y_pocket.pdb
REMARK  141 active torsions:
REMARK  status: ('A' for Active; 'I' for Inactive)
REMARK    1  A    between atoms: _1  and  _3
REMARK    2  A    between atoms: _3  and  _4
REMARK    3  A    between atoms: _3  and  _6
REMARK    4  A    between atoms: _6  and  _7
REMARK    5  A    between atoms: _10  and  _12
REMARK    6  A    between atoms: _12  and  _13
REMARK    7  A    between atoms: _12  and  _15
REMARK    8  A    between atoms: _15  and  _16
REMARK    9  A    between atoms: _21  and  _23
REMARK   10  A    between atoms: _23  and  _24
REMARK   11  A    between atoms: _23  and  _26
REMARK   12  A    between atoms: _26  and  _27
REMARK   13  A    between atoms: _29  and  _31
REMARK   14  A    between atoms: _31  and  _32
REMARK   15  A    between atoms: _31  and  _34
REMARK   16  A    between atoms: _34  and  _35
REMARK   17  A    between atoms: _35  and  _36
REMARK   18  A    between atoms: _36  and  _37
REMARK   19  A    between atoms: _46  and  _48
REMARK   20  A    between atoms: _48  and  _49
REMARK   21  A    between atoms: _48  and  _51
REMARK   22  A    between atoms: _51  and  _52
REMARK   23  A    between atoms: _55  and  _57
REMARK   24  A    between atoms: _57  and  _58
REMARK   25  A    between atoms: _57  and  _60
REMARK   26  A    between atoms: _60  and  _61
REMARK   27  A    between atoms: _66  and  _67
REMARK   28  A    between atoms: _69  and  _71
REMARK   29  A    between atoms: _71  and  _72
REMARK   30  A    between atoms: _71  and  _74
REMARK   31  A    between atoms: _74  and  _75
REMARK   32  A    between atoms: _85  and  _87
REMARK   33  A    between atoms: _87  and  _88
REMARK   34  A    between atoms: _87  and  _90
REMARK   35  A    between atoms: _90  and  _91
REMARK   36  A    between atoms: _91  and  _92
REMARK   37  A    between atoms: _92  and  _93
REMARK   38  A    between atoms: _93  and  _94
REMARK   39  A    between atoms: _98  and  _100
REMARK   40  A    between atoms: _100  and  _101
REMARK   41  A    between atoms: _100  and  _103
REMARK   42  A    between atoms: _103  and  _104
REMARK   43  A    between atoms: _104  and  _105
REMARK   44  A    between atoms: _110  and  _112
REMARK   45  A    between atoms: _112  and  _113
REMARK   46  A    between atoms: _112  and  _115
REMARK   47  A    between atoms: _115  and  _116
REMARK   48  A    between atoms: _118  and  _120
REMARK   49  A    between atoms: _120  and  _121
REMARK   50  A    between atoms: _120  and  _123
REMARK   51  A    between atoms: _123  and  _124
REMARK   52  A    between atoms: _129  and  _130
REMARK   53  A    between atoms: _132  and  _134
REMARK   54  A    between atoms: _134  and  _135
REMARK   55  A    between atoms: _134  and  _137
REMARK   56  A    between atoms: _137  and  _138
REMARK   57  A    between atoms: _143  and  _145
REMARK   58  A    between atoms: _145  and  _146
REMARK   59  A    between atoms: _145  and  _148
REMARK   60  A    between atoms: _148  and  _149
REMARK   61  A    between atoms: _152  and  _154
REMARK   62  A    between atoms: _154  and  _155
REMARK   63  A    between atoms: _154  and  _157
REMARK   64  A    between atoms: _157  and  _158
REMARK   65  A    between atoms: _158  and  _159
REMARK   66  A    between atoms: _159  and  _160
REMARK   67  A    between atoms: _169  and  _171
REMARK   68  A    between atoms: _171  and  _172
REMARK   69  A    between atoms: _171  and  _174
REMARK   70  A    between atoms: _174  and  _175
REMARK   71  A    between atoms: _180  and  _181
REMARK   72  A    between atoms: _183  and  _185
REMARK   73  A    between atoms: _185  and  _186
REMARK   74  A    between atoms: _185  and  _188
REMARK   75  A    between atoms: _188  and  _189
REMARK   76  A    between atoms: _195  and  _197
REMARK   77  A    between atoms: _197  and  _198
REMARK   78  A    between atoms: _197  and  _200
REMARK   79  A    between atoms: _200  and  _201
REMARK   80  A    between atoms: _204  and  _206
REMARK   81  A    between atoms: _206  and  _207
REMARK   82  A    between atoms: _206  and  _209
REMARK   83  A    between atoms: _209  and  _210
REMARK   84  A    between atoms: _210  and  _211
REMARK   85  A    between atoms: _211  and  _212
REMARK   86  A    between atoms: _221  and  _223
REMARK   87  A    between atoms: _223  and  _224
REMARK   88  A    between atoms: _223  and  _226
REMARK   89  A    between atoms: _226  and  _227
REMARK   90  A    between atoms: _232  and  _234
REMARK   91  A    between atoms: _234  and  _235
REMARK   92  A    between atoms: _234  and  _237
REMARK   93  A    between atoms: _237  and  _238
REMARK   94  A    between atoms: _243  and  _245
REMARK   95  A    between atoms: _245  and  _246
REMARK   96  A    between atoms: _245  and  _248
REMARK   97  A    between atoms: _248  and  _249
REMARK   98  A    between atoms: _252  and  _254
REMARK   99  A    between atoms: _254  and  _255
REMARK  100  A    between atoms: _254  and  _257
REMARK  101  A    between atoms: _257  and  _258
REMARK  102  A    between atoms: _258  and  _259
REMARK  103  A    between atoms: _262  and  _264
REMARK  104  A    between atoms: _264  and  _265
REMARK  105  A    between atoms: _264  and  _267
REMARK  106  A    between atoms: _267  and  _268
REMARK  107  A    between atoms: _271  and  _273
REMARK  108  A    between atoms: _273  and  _274
REMARK  109  A    between atoms: _273  and  _276
REMARK  110  A    between atoms: _276  and  _277
REMARK  111  A    between atoms: _282  and  _284
REMARK  112  A    between atoms: _284  and  _285
REMARK  113  A    between atoms: _284  and  _287
REMARK  114  A    between atoms: _287  and  _288
REMARK  115  A    between atoms: _291  and  _293
REMARK  116  A    between atoms: _293  and  _294
REMARK  117  A    between atoms: _296  and  _298
REMARK  118  A    between atoms: _298  and  _299
REMARK  119  A    between atoms: _298  and  _301
REMARK  120  A    between atoms: _301  and  _302
REMARK  121  A    between atoms: _307  and  _308
REMARK  122  A    between atoms: _310  and  _312
REMARK  123  A    between atoms: _312  and  _313
REMARK  124  A    between atoms: _312  and  _315
REMARK  125  A    between atoms: _315  and  _316
REMARK  126  A    between atoms: _321  and  _322
REMARK  127  A    between atoms: _324  and  _326
REMARK  128  A    between atoms: _326  and  _327
REMARK  129  A    between atoms: _326  and  _329
REMARK  130  A    between atoms: _329  and  _330
REMARK  131  A    between atoms: _330  and  _331
REMARK  132  A    between atoms: _334  and  _336
REMARK  133  A    between atoms: _336  and  _337
REMARK  134  A    between atoms: _336  and  _339
REMARK  135  A    between atoms: _339  and  _340
REMARK  136  A    between atoms: _340  and  _341
REMARK  137  A    between atoms: _341  and  _342
REMARK  138  A    between atoms: _351  and  _353
REMARK  139  A    between atoms: _353  and  _354
REMARK  140  A    between atoms: _353  and  _356
REMARK  141  A    between atoms: _356  and  _357
REMARK                            x       y       z     vdW  Elec       q    Type
REMARK                         _______ _______ _______ _____ _____    ______ ____
ROOT
ATOM      1  CG  TYR A   1      28.383   3.988  -2.663  0.00  0.00    -0.020 A 
ATOM      2  CD2 TYR A   1      27.975   4.500  -1.413  0.00  0.00    -0.001 A 
ATOM      3  CE2 TYR A   1      28.462   3.927  -0.193  0.00  0.00    +0.036 A 
ATOM      4  CZ  TYR A   1      29.390   2.880  -0.267  0.00  0.00    +0.134 A 
ATOM      5  CE1 TYR A   1      29.791   2.367  -1.511  0.00  0.00    +0.036 A 
ATOM      6  CD1 TYR A   1      29.289   2.933  -2.689  0.00  0.00    -0.001 A 
ENDROOT
BRANCH   4   7
ATOM      7  OH  TYR A   1      29.901   2.286   0.867  0.00  0.00    -0.506 OA
ATOM      8  HH  TYR A   1      30.888   2.361   0.861  0.00  0.00    +0.292 HD
ENDBRANCH   4   7
BRANCH   1   9
ATOM      9  CB  TYR A   1      27.851   4.528  -3.980  0.00  0.00    +0.051 C 
BRANCH   9  10
ATOM     10  CA  TYR A   1      27.490   6.001  -4.107  0.00  0.00    +0.137 C 
BRANCH  10  11
ATOM     11  N   TYR A   1      26.320   6.354  -3.306  0.00  0.00    -0.239 NA
ATOM     12  H   TYR A   1      25.822   5.614  -2.772  0.00  0.00    +0.142 HD
ENDBRANCH  10  11
BRANCH  10  13
ATOM     13  C   TYR A   1      27.069   6.186  -5.552  0.00  0.00    +0.224 C 
ATOM     14  O   TYR A   1      25.892   6.052  -5.876  0.00  0.00    -0.287 OA
ENDBRANCH  10  13
ENDBRANCH   9  10
ENDBRANCH   1   9
TORSDOF 5
REMARK  Name = ../refined-set-2016/2r1y/2r1y_pocket.pdb
REMARK  141 active torsions:
REMARK  status: ('A' for Active; 'I' for Inactive)
REMARK    1  A    between atoms: _1  and  _3
REMARK    2  A    between atoms: _3  and  _4
REMARK    3  A    between atoms: _3  and  _6
REMARK    4  A    between atoms: _6  and  _7
REMARK    5  A    between atoms: _10  and  _12
REMARK    6  A    between atoms: _12  and  _13
REMARK    7  A    between atoms: _12  and  _15
REMARK    8  A    between atoms: _15  and  _16
REMARK    9  A    between atoms: _21  and  _23
REMARK   10  A    between atoms: _23  and  _24
REMARK   11  A    between atoms: _23  and  _26
REMARK   12  A    between atoms: _26  and  _27
REMARK   13  A    between atoms: _29  and  _31
REMARK   14  A    between atoms: _31  and  _32
REMARK   15  A    between atoms: _31  and  _34
REMARK   16  A    between atoms: _34  and  _35
REMARK   17  A    between atoms: _35  and  _36
REMARK   18  A    between atoms: _36  and  _37
REMARK   19  A    between atoms: _46  and  _48
REMARK   20  A    between atoms: _48  and  _49
REMARK   21  A    between atoms: _48  and  _51
REMARK   22  A    between atoms: _51  and  _52
REMARK   23  A    between atoms: _55  and  _57
REMARK   24  A    between atoms: _57  and  _58
REMARK   25  A    between atoms: _57  and  _60
REMARK   26  A    between atoms: _60  and  _61
REMARK   27  A    between atoms: _66  and  _67
REMARK   28  A    between atoms: _69  and  _71
REMARK   29  A    between atoms: _71  and  _72
REMARK   30  A    between atoms: _71  and  _74
REMARK   31  A    between atoms: _74  and  _75
REMARK   32  A    between atoms: _85  and  _87
REMARK   33  A    between atoms: _87  and  _88
REMARK   34  A    between atoms: _87  and  _90
REMARK   35  A    between atoms: _90  and  _91
REMARK   36  A    between atoms: _91  and  _92
REMARK   37  A    between atoms: _92  and  _93
REMARK   38  A    between atoms: _93  and  _94
REMARK   39  A    between atoms: _98  and  _100
REMARK   40  A    between atoms: _100  and  _101
REMARK   41  A    between atoms: _100  and  _103
REMARK   42  A    between atoms: _103  and  _104
REMARK   43  A    between atoms: _104  and  _105
REMARK   44  A    between atoms: _110  and  _112
REMARK   45  A    between atoms: _112  and  _113
REMARK   46  A    between atoms: _112  and  _115
REMARK   47  A    between atoms: _115  and  _116
REMARK   48  A    between atoms: _118  and  _120
REMARK   49  A    between atoms: _120  and  _121
REMARK   50  A    between atoms: _120  and  _123
REMARK   51  A    between atoms: _123  and  _124
REMARK   52  A    between atoms: _129  and  _130
REMARK   53  A    between atoms: _132  and  _134
REMARK   54  A    between atoms: _134  and  _135
REMARK   55  A    between atoms: _134  and  _137
REMARK   56  A    between atoms: _137  and  _138
REMARK   57  A    between atoms: _143  and  _145
REMARK   58  A    between atoms: _145  and  _146
REMARK   59  A    between atoms: _145  and  _148
REMARK   60  A    between atoms: _148  and  _149
REMARK   61  A    between atoms: _152  and  _154
REMARK   62  A    between atoms: _154  and  _155
REMARK   63  A    between atoms: _154  and  _157
REMARK   64  A    between atoms: _157  and  _158
REMARK   65  A    between atoms: _158  and  _159
REMARK   66  A    between atoms: _159  and  _160
REMARK   67  A    between atoms: _169  and  _171
REMARK   68  A    between atoms: _171  and  _172
REMARK   69  A    between atoms: _171  and  _174
REMARK   70  A    between atoms: _174  and  _175
REMARK   71  A    between atoms: _180  and  _181
REMARK   72  A    between atoms: _183  and  _185
REMARK   73  A    between atoms: _185  and  _186
REMARK   74  A    between atoms: _185  and  _188
REMARK   75  A    between atoms: _188  and  _189
REMARK   76  A    between atoms: _195  and  _197
REMARK   77  A    between atoms: _197  and  _198
REMARK   78  A    between atoms: _197  and  _200
REMARK   79  A    between atoms: _200  and  _201
REMARK   80  A    between atoms: _204  and  _206
REMARK   81  A    between atoms: _206  and  _207
REMARK   82  A    between atoms: _206  and  _209
REMARK   83  A    between atoms: _209  and  _210
REMARK   84  A    between atoms: _210  and  _211
REMARK   85  A    between atoms: _211  and  _212
REMARK   86  A    between atoms: _221  and  _223
REMARK   87  A    between atoms: _223  and  _224
REMARK   88  A    between atoms: _223  and  _226
REMARK   89  A    between atoms: _226  and  _227
REMARK   90  A    between atoms: _232  and  _234
REMARK   91  A    between atoms: _234  and  _235
REMARK   92  A    between atoms: _234  and  _237
REMARK   93  A    between atoms: _237  and  _238
REMARK   94  A    between atoms: _243  and  _245
REMARK   95  A    between atoms: _245  and  _246
REMARK   96  A    between atoms: _245  and  _248
REMARK   97  A    between atoms: _248  and  _249
REMARK   98  A    between atoms: _252  and  _254
REMARK   99  A    between atoms: _254  and  _255
REMARK  100  A    between atoms: _254  and  _257
REMARK  101  A    between atoms: _257  and  _258
REMARK  102  A    between atoms: _258  and  _259
REMARK  103  A    between atoms: _262  and  _264
REMARK  104  A    between atoms: _264  and  _265
REMARK  105  A    between atoms: _264  and  _267
REMARK  106  A    between atoms: _267  and  _268
REMARK  107  A    between atoms: _271  and  _273
REMARK  108  A    between atoms: _273  and  _274
REMARK  109  A    between atoms: _273  and  _276
REMARK  110  A    between atoms: _276  and  _277
REMARK  111  A    between atoms: _282  and  _284
REMARK  112  A    between atoms: _284  and  _285
REMARK  113  A    between atoms: _284  and  _287
REMARK  114  A    between atoms: _287  and  _288
REMARK  115  A    between atoms: _291  and  _293
REMARK  116  A    between atoms: _293  and  _294
REMARK  117  A    between atoms: _296  and  _298
REMARK  118  A    between atoms: _298  and  _299
REMARK  119  A    between atoms: _298  and  _301
REMARK  120  A    between atoms: _301  and  _302
REMARK  121  A    between atoms: _307  and  _308
REMARK  122  A    between atoms: _310  and  _312
REMARK  123  A    between atoms: _312  and  _313
REMARK  124  A    between atoms: _312  and  _315
REMARK  125  A    between atoms: _315  and  _316
REMARK  126  A    between atoms: _321  and  _322
REMARK  127  A    between atoms: _324  and  _326
REMARK  128  A    between atoms: _326  and  _327
REMARK  129  A    between atoms: _326  and  _329
REMARK  130  A    between atoms: _329  and  _330
REMARK  131  A    between atoms: _330  and  _331
REMARK  132  A    between atoms: _334  and  _336
REMARK  133  A    between atoms: _336  and  _337
REMARK  134  A    between atoms: _336  and  _339
REMARK  135  A    between atoms: _339  and  _340
REMARK  136  A    between atoms: _340  and  _341
REMARK  137  A    between atoms: _341  and  _342
REMARK  138  A    between atoms: _351  and  _353
REMARK  139  A    between atoms: _353  and  _354
REMARK  140  A    between atoms: _353  and  _356
REMARK  141  A    between atoms: _356  and  _357
REMARK                            x       y       z     vdW  Elec       q    Type
REMARK                         _______ _______ _______ _____ _____    ______ ____
ROOT
ATOM      1  CA  ARG A   3      31.148   6.485  -2.079  0.00  0.00    +0.149 C 
ENDROOT
BRANCH   1   3
ATOM      2  C   ILE A   2      31.684   6.868  -4.405  0.00  0.00    +0.241 C 
ATOM      3  N   ARG A   3      32.096   6.755  -3.146  0.00  0.00    -0.297 N 
ATOM      4  H   ARG A   3      33.106   6.861  -2.923  0.00  0.00    +0.150 HD
ATOM      5  O   ILE A   2      30.484   6.806  -4.727  0.00  0.00    -0.273 OA
BRANCH   2   6
ATOM      6  CA  ILE A   2      32.769   6.998  -5.452  0.00  0.00    +0.148 C 
BRANCH   6   8
ATOM      7  C   PHE A   1      33.259   5.074  -6.898  0.00  0.00    +0.239 C 
ATOM      8  N   ILE A   2      32.432   6.039  -6.501  0.00  0.00    -0.297 N 
ATOM      9  H   ILE A   2      31.502   6.114  -6.960  0.00  0.00    +0.150 HD
ATOM     10  O   PHE A   1      34.473   5.029  -6.657  0.00  0.00    -0.274 OA
BRANCH   7  11
ATOM     11  CA  PHE A   1      32.608   4.017  -7.782  0.00  0.00    +0.149 C 
BRANCH  11  12
ATOM     12  N   PHE A   1      33.618   3.216  -8.480  0.00  0.00    -0.238 NA
ATOM     13  H   PHE A   1      34.476   2.916  -7.975  0.00  0.00    +0.142 HD
ENDBRANCH  11  12
BRANCH  11  14
ATOM     14  CB  PHE A   1      31.536   3.178  -7.043  0.00  0.00    +0.053 C 
BRANCH  14  15
ATOM     15  CG  PHE A   1      32.019   2.353  -5.856  0.00  0.00    -0.020 A 
ATOM     16  CD2 PHE A   1      32.885   2.858  -4.857  0.00  0.00    -0.004 A 
ATOM     17  CE2 PHE A   1      33.266   2.036  -3.746  0.00  0.00    -0.000 A 
ATOM     18  CZ  PHE A   1      32.737   0.729  -3.619  0.00  0.00    -0.000 A 
ATOM     19  CE1 PHE A   1      31.845   0.234  -4.607  0.00  0.00    -0.000 A 
ATOM     20  CD1 PHE A   1      31.492   1.051  -5.694  0.00  0.00    -0.004 A 
ENDBRANCH  14  15
ENDBRANCH  11  14
ENDBRANCH   7  11
ENDBRANCH   6   8
BRANCH   6  21
ATOM     21  CB  ILE A   2      32.951   8.444  -6.025  0.00  0.00    +0.027 C 
ATOM     22  CG2 ILE A   2      31.686   8.962  -6.739  0.00  0.00    +0.002 C 
BRANCH  21  23
ATOM     23  CG1 ILE A   2      33.428   9.391  -4.925  0.00  0.00    +0.002 C 
ATOM     24  CD1 ILE A   2      34.071  10.614  -5.470  0.00  0.00    +0.000 C 
ENDBRANCH  21  23
ENDBRANCH   6  21
ENDBRANCH   2   6
ENDBRANCH   1   3
BRANCH   1  25
ATOM     25  C   ARG A   3      30.358   7.747  -1.682  0.00  0.00    +0.241 C 
ATOM     26  N   ASN A   4      29.424   7.581  -0.750  0.00  0.00    -0.298 N 
ATOM     27  H   ASN A   4      29.296   6.644  -0.318  0.00  0.00    +0.150 HD
ATOM     28  O   ARG A   3      30.568   8.824  -2.237  0.00  0.00    -0.273 OA
BRANCH  26  29
ATOM     29  CA  ASN A   4      28.577   8.685  -0.322  0.00  0.00    +0.146 C 
BRANCH  29  30
ATOM     30  C   ASN A   4      29.245   9.477   0.799  0.00  0.00    +0.227 C 
ATOM     31  O   ASN A   4      30.360   9.167   1.215  0.00  0.00    -0.286 OA
ENDBRANCH  29  30
BRANCH  29  32
ATOM     32  CB  ASN A   4      27.201   8.167   0.111  0.00  0.00    +0.112 C 
BRANCH  32  33
ATOM     33  CG  ASN A   4      27.288   7.118   1.215  0.00  0.00    +0.222 C 
ATOM     34  OD1 ASN A   4      28.349   6.887   1.795  0.00  0.00    -0.275 OA
ATOM     35  ND2 ASN A   4      26.154   6.486   1.516  0.00  0.00    -0.329 N 
ATOM     36 HD21 ASN A   4      26.143   5.766   2.267  0.00  0.00    +0.145 HD
ATOM     37 HD22 ASN A   4      25.280   6.712   1.000  0.00  0.00    +0.145 HD
ENDBRANCH  32  33
ENDBRANCH  29  32
ENDBRANCH  26  29
ENDBRANCH   1  25
BRANCH   1  38
ATOM     38  CB  ARG A   3      31.854   5.838  -0.876  0.00  0.00    +0.033 C 
BRANCH  38  39
ATOM     39  CG  ARG A   3      32.686   4.568  -1.215  0.00  0.00    +0.045 C 
BRANCH  39  40
ATOM     40  CD  ARG A   3      33.151   3.904   0.094  0.00  0.00    +0.174 C 
BRANCH  40  41
ATOM     41  NE  ARG A   3      33.570   2.515  -0.077  0.00  0.00    -0.265 N 
ATOM     42  HE  ARG A   3      32.855   1.770   0.047  0.00  0.00    +0.259 HD
ATOM     43  CZ  ARG A   3      34.811   2.144  -0.382  0.00  0.00    +0.342 C 
ATOM     44  NH2 ARG A   3      35.094   0.850  -0.517  0.00  0.00    -0.292 N 
ATOM     45 HH21 ARG A   3      34.348   0.138  -0.384  0.00  0.00    +0.255 HD
ATOM     46 HH22 ARG A   3      36.061   0.551  -0.755  0.00  0.00    +0.255 HD
ATOM     47  NH1 ARG A   3      35.751   3.063  -0.595  0.00  0.00    -0.292 N 
ATOM     48 HH11 ARG A   3      35.516   4.074  -0.523  0.00  0.00    +0.255 HD
ATOM     49 HH12 ARG A   3      36.720   2.770  -0.833  0.00  0.00    +0.255 HD
ENDBRANCH  40  41
ENDBRANCH  39  40
ENDBRANCH  38  39
ENDBRANCH   1  38
TORSDOF 18
REMARK  Name = ../refined-set-2016/2r1y/2r1y_pocket.pdb
REMARK  141 active torsions:
REMARK  status: ('A' for Active; 'I' for Inactive)
REMARK    1  A    between atoms: _1  and  _3
REMARK    2  A    between atoms: _3  and  _4
REMARK    3  A    between atoms: _3  and  _6
REMARK    4  A    between atoms: _6  and  _7
REMARK    5  A    between atoms: _10  and  _12
REMARK    6  A    between atoms: _12  and  _13
REMARK    7  A    between atoms: _12  and  _15
REMARK    8  A    between atoms: _15  and  _16
REMARK    9  A    between atoms: _21  and  _23
REMARK   10  A    between atoms: _23  and  _24
REMARK   11  A    between atoms: _23  and  _26
REMARK   12  A    between atoms: _26  and  _27
REMARK   13  A    between atoms: _29  and  _31
REMARK   14  A    between atoms: _31  and  _32
REMARK   15  A    between atoms: _31  and  _34
REMARK   16  A    between atoms: _34  and  _35
REMARK   17  A    between atoms: _35  and  _36
REMARK   18  A    between atoms: _36  and  _37
REMARK   19  A    between atoms: _46  and  _48
REMARK   20  A    between atoms: _48  and  _49
REMARK   21  A    between atoms: _48  and  _51
REMARK   22  A    between atoms: _51  and  _52
REMARK   23  A    between atoms: _55  and  _57
REMARK   24  A    between atoms: _57  and  _58
REMARK   25  A    between atoms: _57  and  _60
REMARK   26  A    between atoms: _60  and  _61
REMARK   27  A    between atoms: _66  and  _67
REMARK   28  A    between atoms: _69  and  _71
REMARK   29  A    between atoms: _71  and  _72
REMARK   30  A    between atoms: _71  and  _74
REMARK   31  A    between atoms: _74  and  _75
REMARK   32  A    between atoms: _85  and  _87
REMARK   33  A    between atoms: _87  and  _88
REMARK   34  A    between atoms: _87  and  _90
REMARK   35  A    between atoms: _90  and  _91
REMARK   36  A    between atoms: _91  and  _92
REMARK   37  A    between atoms: _92  and  _93
REMARK   38  A    between atoms: _93  and  _94
REMARK   39  A    between atoms: _98  and  _100
REMARK   40  A    between atoms: _100  and  _101
REMARK   41  A    between atoms: _100  and  _103
REMARK   42  A    between atoms: _103  and  _104
REMARK   43  A    between atoms: _104  and  _105
REMARK   44  A    between atoms: _110  and  _112
REMARK   45  A    between atoms: _112  and  _113
REMARK   46  A    between atoms: _112  and  _115
REMARK   47  A    between atoms: _115  and  _116
REMARK   48  A    between atoms: _118  and  _120
REMARK   49  A    between atoms: _120  and  _121
REMARK   50  A    between atoms: _120  and  _123
REMARK   51  A    between atoms: _123  and  _124
REMARK   52  A    between atoms: _129  and  _130
REMARK   53  A    between atoms: _132  and  _134
REMARK   54  A    between atoms: _134  and  _135
REMARK   55  A    between atoms: _134  and  _137
REMARK   56  A    between atoms: _137  and  _138
REMARK   57  A    between atoms: _143  and  _145
REMARK   58  A    between atoms: _145  and  _146
REMARK   59  A    between atoms: _145  and  _148
REMARK   60  A    between atoms: _148  and  _149
REMARK   61  A    between atoms: _152  and  _154
REMARK   62  A    between atoms: _154  and  _155
REMARK   63  A    between atoms: _154  and  _157
REMARK   64  A    between atoms: _157  and  _158
REMARK   65  A    between atoms: _158  and  _159
REMARK   66  A    between atoms: _159  and  _160
REMARK   67  A    between atoms: _169  and  _171
REMARK   68  A    between atoms: _171  and  _172
REMARK   69  A    between atoms: _171  and  _174
REMARK   70  A    between atoms: _174  and  _175
REMARK   71  A    between atoms: _180  and  _181
REMARK   72  A    between atoms: _183  and  _185
REMARK   73  A    between atoms: _185  and  _186
REMARK   74  A    between atoms: _185  and  _188
REMARK   75  A    between atoms: _188  and  _189
REMARK   76  A    between atoms: _195  and  _197
REMARK   77  A    between atoms: _197  and  _198
REMARK   78  A    between atoms: _197  and  _200
REMARK   79  A    between atoms: _200  and  _201
REMARK   80  A    between atoms: _204  and  _206
REMARK   81  A    between atoms: _206  and  _207
REMARK   82  A    between atoms: _206  and  _209
REMARK   83  A    between atoms: _209  and  _210
REMARK   84  A    between atoms: _210  and  _211
REMARK   85  A    between atoms: _211  and  _212
REMARK   86  A    between atoms: _221  and  _223
REMARK   87  A    between atoms: _223  and  _224
REMARK   88  A    between atoms: _223  and  _226
REMARK   89  A    between atoms: _226  and  _227
REMARK   90  A    between atoms: _232  and  _234
REMARK   91  A    between atoms: _234  and  _235
REMARK   92  A    between atoms: _234  and  _237
REMARK   93  A    between atoms: _237  and  _238
REMARK   94  A    between atoms: _243  and  _245
REMARK   95  A    between atoms: _245  and  _246
REMARK   96  A    between atoms: _245  and  _248
REMARK   97  A    between atoms: _248  and  _249
REMARK   98  A    between atoms: _252  and  _254
REMARK   99  A    between atoms: _254  and  _255
REMARK  100  A    between atoms: _254  and  _257
REMARK  101  A    between atoms: _257  and  _258
REMARK  102  A    between atoms: _258  and  _259
REMARK  103  A    between atoms: _262  and  _264
REMARK  104  A    between atoms: _264  and  _265
REMARK  105  A    between atoms: _264  and  _267
REMARK  106  A    between atoms: _267  and  _268
REMARK  107  A    between atoms: _271  and  _273
REMARK  108  A    between atoms: _273  and  _274
REMARK  109  A    between atoms: _273  and  _276
REMARK  110  A    between atoms: _276  and  _277
REMARK  111  A    between atoms: _282  and  _284
REMARK  112  A    between atoms: _284  and  _285
REMARK  113  A    between atoms: _284  and  _287
REMARK  114  A    between atoms: _287  and  _288
REMARK  115  A    between atoms: _291  and  _293
REMARK  116  A    between atoms: _293  and  _294
REMARK  117  A    between atoms: _296  and  _298
REMARK  118  A    between atoms: _298  and  _299
REMARK  119  A    between atoms: _298  and  _301
REMARK  120  A    between atoms: _301  and  _302
REMARK  121  A    between atoms: _307  and  _308
REMARK  122  A    between atoms: _310  and  _312
REMARK  123  A    between atoms: _312  and  _313
REMARK  124  A    between atoms: _312  and  _315
REMARK  125  A    between atoms: _315  and  _316
REMARK  126  A    between atoms: _321  and  _322
REMARK  127  A    between atoms: _324  and  _326
REMARK  128  A    between atoms: _326  and  _327
REMARK  129  A    between atoms: _326  and  _329
REMARK  130  A    between atoms: _329  and  _330
REMARK  131  A    between atoms: _330  and  _331
REMARK  132  A    between atoms: _334  and  _336
REMARK  133  A    between atoms: _336  and  _337
REMARK  134  A    between atoms: _336  and  _339
REMARK  135  A    between atoms: _339  and  _340
REMARK  136  A    between atoms: _340  and  _341
REMARK  137  A    between atoms: _341  and  _342
REMARK  138  A    between atoms: _351  and  _353
REMARK  139  A    between atoms: _353  and  _354
REMARK  140  A    between atoms: _353  and  _356
REMARK  141  A    between atoms: _356  and  _357
REMARK                            x       y       z     vdW  Elec       q    Type
REMARK                         _______ _______ _______ _____ _____    ______ ____
ROOT
ATOM      1  CB  ASN A   1      31.516   5.830   2.845  0.00  0.00    +0.110 C 
ENDROOT
BRANCH   1   2
ATOM      2  CG  ASN A   1      30.758   4.765   3.563  0.00  0.00    +0.221 C 
ATOM      3  OD1 ASN A   1      31.347   3.915   4.251  0.00  0.00    -0.275 OA
ATOM      4  ND2 ASN A   1      29.451   4.811   3.450  0.00  0.00    -0.329 N 
ATOM      5 HD21 ASN A   1      28.861   4.115   3.949  0.00  0.00    +0.145 HD
ATOM      6 HD22 ASN A   1      29.005   5.543   2.861  0.00  0.00    +0.145 HD
ENDBRANCH   1   2
BRANCH   1   7
ATOM      7  CA  ASN A   1      31.777   7.040   3.742  0.00  0.00    +0.142 C 
BRANCH   7   8
ATOM      8  N   ASN A   1      30.536   7.785   3.940  0.00  0.00    -0.239 NA
ATOM      9  H   ASN A   1      29.976   8.054   3.106  0.00  0.00    +0.142 HD
ENDBRANCH   7   8
BRANCH   7  10
ATOM     10  C   ASN A   1      32.923   7.876   3.189  0.00  0.00    +0.225 C 
ATOM     11  O   ASN A   1      33.900   7.339   2.629  0.00  0.00    -0.287 OA
ENDBRANCH   7  10
ENDBRANCH   1   7
TORSDOF 4
REMARK  Name = ../refined-set-2016/2r1y/2r1y_pocket.pdb
REMARK  141 active torsions:
REMARK  status: ('A' for Active; 'I' for Inactive)
REMARK    1  A    between atoms: _1  and  _3
REMARK    2  A    between atoms: _3  and  _4
REMARK    3  A    between atoms: _3  and  _6
REMARK    4  A    between atoms: _6  and  _7
REMARK    5  A    between atoms: _10  and  _12
REMARK    6  A    between atoms: _12  and  _13
REMARK    7  A    between atoms: _12  and  _15
REMARK    8  A    between atoms: _15  and  _16
REMARK    9  A    between atoms: _21  and  _23
REMARK   10  A    between atoms: _23  and  _24
REMARK   11  A    between atoms: _23  and  _26
REMARK   12  A    between atoms: _26  and  _27
REMARK   13  A    between atoms: _29  and  _31
REMARK   14  A    between atoms: _31  and  _32
REMARK   15  A    between atoms: _31  and  _34
REMARK   16  A    between atoms: _34  and  _35
REMARK   17  A    between atoms: _35  and  _36
REMARK   18  A    between atoms: _36  and  _37
REMARK   19  A    between atoms: _46  and  _48
REMARK   20  A    between atoms: _48  and  _49
REMARK   21  A    between atoms: _48  and  _51
REMARK   22  A    between atoms: _51  and  _52
REMARK   23  A    between atoms: _55  and  _57
REMARK   24  A    between atoms: _57  and  _58
REMARK   25  A    between atoms: _57  and  _60
REMARK   26  A    between atoms: _60  and  _61
REMARK   27  A    between atoms: _66  and  _67
REMARK   28  A    between atoms: _69  and  _71
REMARK   29  A    between atoms: _71  and  _72
REMARK   30  A    between atoms: _71  and  _74
REMARK   31  A    between atoms: _74  and  _75
REMARK   32  A    between atoms: _85  and  _87
REMARK   33  A    between atoms: _87  and  _88
REMARK   34  A    between atoms: _87  and  _90
REMARK   35  A    between atoms: _90  and  _91
REMARK   36  A    between atoms: _91  and  _92
REMARK   37  A    between atoms: _92  and  _93
REMARK   38  A    between atoms: _93  and  _94
REMARK   39  A    between atoms: _98  and  _100
REMARK   40  A    between atoms: _100  and  _101
REMARK   41  A    between atoms: _100  and  _103
REMARK   42  A    between atoms: _103  and  _104
REMARK   43  A    between atoms: _104  and  _105
REMARK   44  A    between atoms: _110  and  _112
REMARK   45  A    between atoms: _112  and  _113
REMARK   46  A    between atoms: _112  and  _115
REMARK   47  A    between atoms: _115  and  _116
REMARK   48  A    between atoms: _118  and  _120
REMARK   49  A    between atoms: _120  and  _121
REMARK   50  A    between atoms: _120  and  _123
REMARK   51  A    between atoms: _123  and  _124
REMARK   52  A    between atoms: _129  and  _130
REMARK   53  A    between atoms: _132  and  _134
REMARK   54  A    between atoms: _134  and  _135
REMARK   55  A    between atoms: _134  and  _137
REMARK   56  A    between atoms: _137  and  _138
REMARK   57  A    between atoms: _143  and  _145
REMARK   58  A    between atoms: _145  and  _146
REMARK   59  A    between atoms: _145  and  _148
REMARK   60  A    between atoms: _148  and  _149
REMARK   61  A    between atoms: _152  and  _154
REMARK   62  A    between atoms: _154  and  _155
REMARK   63  A    between atoms: _154  and  _157
REMARK   64  A    between atoms: _157  and  _158
REMARK   65  A    between atoms: _158  and  _159
REMARK   66  A    between atoms: _159  and  _160
REMARK   67  A    between atoms: _169  and  _171
REMARK   68  A    between atoms: _171  and  _172
REMARK   69  A    between atoms: _171  and  _174
REMARK   70  A    between atoms: _174  and  _175
REMARK   71  A    between atoms: _180  and  _181
REMARK   72  A    between atoms: _183  and  _185
REMARK   73  A    between atoms: _185  and  _186
REMARK   74  A    between atoms: _185  and  _188
REMARK   75  A    between atoms: _188  and  _189
REMARK   76  A    between atoms: _195  and  _197
REMARK   77  A    between atoms: _197  and  _198
REMARK   78  A    between atoms: _197  and  _200
REMARK   79  A    between atoms: _200  and  _201
REMARK   80  A    between atoms: _204  and  _206
REMARK   81  A    between atoms: _206  and  _207
REMARK   82  A    between atoms: _206  and  _209
REMARK   83  A    between atoms: _209  and  _210
REMARK   84  A    between atoms: _210  and  _211
REMARK   85  A    between atoms: _211  and  _212
REMARK   86  A    between atoms: _221  and  _223
REMARK   87  A    between atoms: _223  and  _224
REMARK   88  A    between atoms: _223  and  _226
REMARK   89  A    between atoms: _226  and  _227
REMARK   90  A    between atoms: _232  and  _234
REMARK   91  A    between atoms: _234  and  _235
REMARK   92  A    between atoms: _234  and  _237
REMARK   93  A    between atoms: _237  and  _238
REMARK   94  A    between atoms: _243  and  _245
REMARK   95  A    between atoms: _245  and  _246
REMARK   96  A    between atoms: _245  and  _248
REMARK   97  A    between atoms: _248  and  _249
REMARK   98  A    between atoms: _252  and  _254
REMARK   99  A    between atoms: _254  and  _255
REMARK  100  A    between atoms: _254  and  _257
REMARK  101  A    between atoms: _257  and  _258
REMARK  102  A    between atoms: _258  and  _259
REMARK  103  A    between atoms: _262  and  _264
REMARK  104  A    between atoms: _264  and  _265
REMARK  105  A    between atoms: _264  and  _267
REMARK  106  A    between atoms: _267  and  _268
REMARK  107  A    between atoms: _271  and  _273
REMARK  108  A    between atoms: _273  and  _274
REMARK  109  A    between atoms: _273  and  _276
REMARK  110  A    between atoms: _276  and  _277
REMARK  111  A    between atoms: _282  and  _284
REMARK  112  A    between atoms: _284  and  _285
REMARK  113  A    between atoms: _284  and  _287
REMARK  114  A    between atoms: _287  and  _288
REMARK  115  A    between atoms: _291  and  _293
REMARK  116  A    between atoms: _293  and  _294
REMARK  117  A    between atoms: _296  and  _298
REMARK  118  A    between atoms: _298  and  _299
REMARK  119  A    between atoms: _298  and  _301
REMARK  120  A    between atoms: _301  and  _302
REMARK  121  A    between atoms: _307  and  _308
REMARK  122  A    between atoms: _310  and  _312
REMARK  123  A    between atoms: _312  and  _313
REMARK  124  A    between atoms: _312  and  _315
REMARK  125  A    between atoms: _315  and  _316
REMARK  126  A    between atoms: _321  and  _322
REMARK  127  A    between atoms: _324  and  _326
REMARK  128  A    between atoms: _326  and  _327
REMARK  129  A    between atoms: _326  and  _329
REMARK  130  A    between atoms: _329  and  _330
REMARK  131  A    between atoms: _330  and  _331
REMARK  132  A    between atoms: _334  and  _336
REMARK  133  A    between atoms: _336  and  _337
REMARK  134  A    between atoms: _336  and  _339
REMARK  135  A    between atoms: _339  and  _340
REMARK  136  A    between atoms: _340  and  _341
REMARK  137  A    between atoms: _341  and  _342
REMARK  138  A    between atoms: _351  and  _353
REMARK  139  A    between atoms: _353  and  _354
REMARK  140  A    between atoms: _353  and  _356
REMARK  141  A    between atoms: _356  and  _357
REMARK                            x       y       z     vdW  Elec       q    Type
REMARK                         _______ _______ _______ _____ _____    ______ ____
ROOT
ATOM      1  CA  THR A   1      36.250   7.598  -1.159  0.00  0.00    +0.160 C 
ENDROOT
BRANCH   1   2
ATOM      2  N   THR A   1      35.070   8.337  -0.693  0.00  0.00    -0.237 NA
ATOM      3  H   THR A   1      34.532   7.974   0.120  0.00  0.00    +0.142 HD
ENDBRANCH   1   2
BRANCH   1   4
ATOM      4  CB  THR A   1      36.782   6.621  -0.103  0.00  0.00    +0.134 C 
ATOM      5  CG2 THR A   1      37.419   7.382   1.082  0.00  0.00    +0.034 C 
BRANCH   4   6
ATOM      6  OG1 THR A   1      35.718   5.792   0.365  0.00  0.00    -0.383 OA
ATOM      7  HG1 THR A   1      36.066   5.163   1.046  0.00  0.00    +0.210 HD
ENDBRANCH   4   6
ENDBRANCH   1   4
BRANCH   1   8
ATOM      8  C   THR A   1      35.952   6.822  -2.448  0.00  0.00    +0.227 C 
ATOM      9  O   THR A   1      34.795   6.493  -2.722  0.00  0.00    -0.287 OA
ENDBRANCH   1   8
TORSDOF 4
REMARK  Name = ../refined-set-2016/2r1y/2r1y_pocket.pdb
REMARK  141 active torsions:
REMARK  status: ('A' for Active; 'I' for Inactive)
REMARK    1  A    between atoms: _1  and  _3
REMARK    2  A    between atoms: _3  and  _4
REMARK    3  A    between atoms: _3  and  _6
REMARK    4  A    between atoms: _6  and  _7
REMARK    5  A    between atoms: _10  and  _12
REMARK    6  A    between atoms: _12  and  _13
REMARK    7  A    between atoms: _12  and  _15
REMARK    8  A    between atoms: _15  and  _16
REMARK    9  A    between atoms: _21  and  _23
REMARK   10  A    between atoms: _23  and  _24
REMARK   11  A    between atoms: _23  and  _26
REMARK   12  A    between atoms: _26  and  _27
REMARK   13  A    between atoms: _29  and  _31
REMARK   14  A    between atoms: _31  and  _32
REMARK   15  A    between atoms: _31  and  _34
REMARK   16  A    between atoms: _34  and  _35
REMARK   17  A    between atoms: _35  and  _36
REMARK   18  A    between atoms: _36  and  _37
REMARK   19  A    between atoms: _46  and  _48
REMARK   20  A    between atoms: _48  and  _49
REMARK   21  A    between atoms: _48  and  _51
REMARK   22  A    between atoms: _51  and  _52
REMARK   23  A    between atoms: _55  and  _57
REMARK   24  A    between atoms: _57  and  _58
REMARK   25  A    between atoms: _57  and  _60
REMARK   26  A    between atoms: _60  and  _61
REMARK   27  A    between atoms: _66  and  _67
REMARK   28  A    between atoms: _69  and  _71
REMARK   29  A    between atoms: _71  and  _72
REMARK   30  A    between atoms: _71  and  _74
REMARK   31  A    between atoms: _74  and  _75
REMARK   32  A    between atoms: _85  and  _87
REMARK   33  A    between atoms: _87  and  _88
REMARK   34  A    between atoms: _87  and  _90
REMARK   35  A    between atoms: _90  and  _91
REMARK   36  A    between atoms: _91  and  _92
REMARK   37  A    between atoms: _92  and  _93
REMARK   38  A    between atoms: _93  and  _94
REMARK   39  A    between atoms: _98  and  _100
REMARK   40  A    between atoms: _100  and  _101
REMARK   41  A    between atoms: _100  and  _103
REMARK   42  A    between atoms: _103  and  _104
REMARK   43  A    between atoms: _104  and  _105
REMARK   44  A    between atoms: _110  and  _112
REMARK   45  A    between atoms: _112  and  _113
REMARK   46  A    between atoms: _112  and  _115
REMARK   47  A    between atoms: _115  and  _116
REMARK   48  A    between atoms: _118  and  _120
REMARK   49  A    between atoms: _120  and  _121
REMARK   50  A    between atoms: _120  and  _123
REMARK   51  A    between atoms: _123  and  _124
REMARK   52  A    between atoms: _129  and  _130
REMARK   53  A    between atoms: _132  and  _134
REMARK   54  A    between atoms: _134  and  _135
REMARK   55  A    between atoms: _134  and  _137
REMARK   56  A    between atoms: _137  and  _138
REMARK   57  A    between atoms: _143  and  _145
REMARK   58  A    between atoms: _145  and  _146
REMARK   59  A    between atoms: _145  and  _148
REMARK   60  A    between atoms: _148  and  _149
REMARK   61  A    between atoms: _152  and  _154
REMARK   62  A    between atoms: _154  and  _155
REMARK   63  A    between atoms: _154  and  _157
REMARK   64  A    between atoms: _157  and  _158
REMARK   65  A    between atoms: _158  and  _159
REMARK   66  A    between atoms: _159  and  _160
REMARK   67  A    between atoms: _169  and  _171
REMARK   68  A    between atoms: _171  and  _172
REMARK   69  A    between atoms: _171  and  _174
REMARK   70  A    between atoms: _174  and  _175
REMARK   71  A    between atoms: _180  and  _181
REMARK   72  A    between atoms: _183  and  _185
REMARK   73  A    between atoms: _185  and  _186
REMARK   74  A    between atoms: _185  and  _188
REMARK   75  A    between atoms: _188  and  _189
REMARK   76  A    between atoms: _195  and  _197
REMARK   77  A    between atoms: _197  and  _198
REMARK   78  A    between atoms: _197  and  _200
REMARK   79  A    between atoms: _200  and  _201
REMARK   80  A    between atoms: _204  and  _206
REMARK   81  A    between atoms: _206  and  _207
REMARK   82  A    between atoms: _206  and  _209
REMARK   83  A    between atoms: _209  and  _210
REMARK   84  A    between atoms: _210  and  _211
REMARK   85  A    between atoms: _211  and  _212
REMARK   86  A    between atoms: _221  and  _223
REMARK   87  A    between atoms: _223  and  _224
REMARK   88  A    between atoms: _223  and  _226
REMARK   89  A    between atoms: _226  and  _227
REMARK   90  A    between atoms: _232  and  _234
REMARK   91  A    between atoms: _234  and  _235
REMARK   92  A    between atoms: _234  and  _237
REMARK   93  A    between atoms: _237  and  _238
REMARK   94  A    between atoms: _243  and  _245
REMARK   95  A    between atoms: _245  and  _246
REMARK   96  A    between atoms: _245  and  _248
REMARK   97  A    between atoms: _248  and  _249
REMARK   98  A    between atoms: _252  and  _254
REMARK   99  A    between atoms: _254  and  _255
REMARK  100  A    between atoms: _254  and  _257
REMARK  101  A    between atoms: _257  and  _258
REMARK  102  A    between atoms: _258  and  _259
REMARK  103  A    between atoms: _262  and  _264
REMARK  104  A    between atoms: _264  and  _265
REMARK  105  A    between atoms: _264  and  _267
REMARK  106  A    between atoms: _267  and  _268
REMARK  107  A    between atoms: _271  and  _273
REMARK  108  A    between atoms: _273  and  _274
REMARK  109  A    between atoms: _273  and  _276
REMARK  110  A    between atoms: _276  and  _277
REMARK  111  A    between atoms: _282  and  _284
REMARK  112  A    between atoms: _284  and  _285
REMARK  113  A    between atoms: _284  and  _287
REMARK  114  A    between atoms: _287  and  _288
REMARK  115  A    between atoms: _291  and  _293
REMARK  116  A    between atoms: _293  and  _294
REMARK  117  A    between atoms: _296  and  _298
REMARK  118  A    between atoms: _298  and  _299
REMARK  119  A    between atoms: _298  and  _301
REMARK  120  A    between atoms: _301  and  _302
REMARK  121  A    between atoms: _307  and  _308
REMARK  122  A    between atoms: _310  and  _312
REMARK  123  A    between atoms: _312  and  _313
REMARK  124  A    between atoms: _312  and  _315
REMARK  125  A    between atoms: _315  and  _316
REMARK  126  A    between atoms: _321  and  _322
REMARK  127  A    between atoms: _324  and  _326
REMARK  128  A    between atoms: _326  and  _327
REMARK  129  A    between atoms: _326  and  _329
REMARK  130  A    between atoms: _329  and  _330
REMARK  131  A    between atoms: _330  and  _331
REMARK  132  A    between atoms: _334  and  _336
REMARK  133  A    between atoms: _336  and  _337
REMARK  134  A    between atoms: _336  and  _339
REMARK  135  A    between atoms: _339  and  _340
REMARK  136  A    between atoms: _340  and  _341
REMARK  137  A    between atoms: _341  and  _342
REMARK  138  A    between atoms: _351  and  _353
REMARK  139  A    between atoms: _353  and  _354
REMARK  140  A    between atoms: _353  and  _356
REMARK  141  A    between atoms: _356  and  _357
REMARK                            x       y       z     vdW  Elec       q    Type
REMARK                         _______ _______ _______ _____ _____    ______ ____
ROOT
ATOM      1  CA  GLU A   1      37.432   2.313  -5.757  0.00  0.00    +0.134 C 
ENDROOT
BRANCH   1   2
ATOM      2  N   GLU A   1      36.824   3.624  -5.430  0.00  0.00    -0.239 NA
ATOM      3  H   GLU A   1      35.929   3.899  -5.882  0.00  0.00    +0.142 HD
ENDBRANCH   1   2
BRANCH   1   4
ATOM      4  C   GLU A   1      37.339   2.088  -7.255  0.00  0.00    +0.224 C 
ATOM      5  O   GLU A   1      36.472   2.685  -7.904  0.00  0.00    -0.287 OA
ENDBRANCH   1   4
BRANCH   1   6
ATOM      6  CB  GLU A   1      36.695   1.146  -5.078  0.00  0.00    +0.037 C 
BRANCH   6   7
ATOM      7  CG  GLU A   1      36.579   1.246  -3.565  0.00  0.00    +0.116 C 
BRANCH   7   8
ATOM      8  CD  GLU A   1      37.900   1.162  -2.811  0.00  0.00    +0.365 C 
ATOM      9  OE2 GLU A   1      37.829   1.487  -1.617  0.00  0.00    -0.246 OA
ATOM     10  OE1 GLU A   1      38.979   0.820  -3.359  0.00  0.00    -0.246 OA
ENDBRANCH   7   8
ENDBRANCH   6   7
ENDBRANCH   1   6
TORSDOF 5
REMARK  Name = ../refined-set-2016/2r1y/2r1y_pocket.pdb
REMARK  141 active torsions:
REMARK  status: ('A' for Active; 'I' for Inactive)
REMARK    1  A    between atoms: _1  and  _3
REMARK    2  A    between atoms: _3  and  _4
REMARK    3  A    between atoms: _3  and  _6
REMARK    4  A    between atoms: _6  and  _7
REMARK    5  A    between atoms: _10  and  _12
REMARK    6  A    between atoms: _12  and  _13
REMARK    7  A    between atoms: _12  and  _15
REMARK    8  A    between atoms: _15  and  _16
REMARK    9  A    between atoms: _21  and  _23
REMARK   10  A    between atoms: _23  and  _24
REMARK   11  A    between atoms: _23  and  _26
REMARK   12  A    between atoms: _26  and  _27
REMARK   13  A    between atoms: _29  and  _31
REMARK   14  A    between atoms: _31  and  _32
REMARK   15  A    between atoms: _31  and  _34
REMARK   16  A    between atoms: _34  and  _35
REMARK   17  A    between atoms: _35  and  _36
REMARK   18  A    between atoms: _36  and  _37
REMARK   19  A    between atoms: _46  and  _48
REMARK   20  A    between atoms: _48  and  _49
REMARK   21  A    between atoms: _48  and  _51
REMARK   22  A    between atoms: _51  and  _52
REMARK   23  A    between atoms: _55  and  _57
REMARK   24  A    between atoms: _57  and  _58
REMARK   25  A    between atoms: _57  and  _60
REMARK   26  A    between atoms: _60  and  _61
REMARK   27  A    between atoms: _66  and  _67
REMARK   28  A    between atoms: _69  and  _71
REMARK   29  A    between atoms: _71  and  _72
REMARK   30  A    between atoms: _71  and  _74
REMARK   31  A    between atoms: _74  and  _75
REMARK   32  A    between atoms: _85  and  _87
REMARK   33  A    between atoms: _87  and  _88
REMARK   34  A    between atoms: _87  and  _90
REMARK   35  A    between atoms: _90  and  _91
REMARK   36  A    between atoms: _91  and  _92
REMARK   37  A    between atoms: _92  and  _93
REMARK   38  A    between atoms: _93  and  _94
REMARK   39  A    between atoms: _98  and  _100
REMARK   40  A    between atoms: _100  and  _101
REMARK   41  A    between atoms: _100  and  _103
REMARK   42  A    between atoms: _103  and  _104
REMARK   43  A    between atoms: _104  and  _105
REMARK   44  A    between atoms: _110  and  _112
REMARK   45  A    between atoms: _112  and  _113
REMARK   46  A    between atoms: _112  and  _115
REMARK   47  A    between atoms: _115  and  _116
REMARK   48  A    between atoms: _118  and  _120
REMARK   49  A    between atoms: _120  and  _121
REMARK   50  A    between atoms: _120  and  _123
REMARK   51  A    between atoms: _123  and  _124
REMARK   52  A    between atoms: _129  and  _130
REMARK   53  A    between atoms: _132  and  _134
REMARK   54  A    between atoms: _134  and  _135
REMARK   55  A    between atoms: _134  and  _137
REMARK   56  A    between atoms: _137  and  _138
REMARK   57  A    between atoms: _143  and  _145
REMARK   58  A    between atoms: _145  and  _146
REMARK   59  A    between atoms: _145  and  _148
REMARK   60  A    between atoms: _148  and  _149
REMARK   61  A    between atoms: _152  and  _154
REMARK   62  A    between atoms: _154  and  _155
REMARK   63  A    between atoms: _154  and  _157
REMARK   64  A    between atoms: _157  and  _158
REMARK   65  A    between atoms: _158  and  _159
REMARK   66  A    between atoms: _159  and  _160
REMARK   67  A    between atoms: _169  and  _171
REMARK   68  A    between atoms: _171  and  _172
REMARK   69  A    between atoms: _171  and  _174
REMARK   70  A    between atoms: _174  and  _175
REMARK   71  A    between atoms: _180  and  _181
REMARK   72  A    between atoms: _183  and  _185
REMARK   73  A    between atoms: _185  and  _186
REMARK   74  A    between atoms: _185  and  _188
REMARK   75  A    between atoms: _188  and  _189
REMARK   76  A    between atoms: _195  and  _197
REMARK   77  A    between atoms: _197  and  _198
REMARK   78  A    between atoms: _197  and  _200
REMARK   79  A    between atoms: _200  and  _201
REMARK   80  A    between atoms: _204  and  _206
REMARK   81  A    between atoms: _206  and  _207
REMARK   82  A    between atoms: _206  and  _209
REMARK   83  A    between atoms: _209  and  _210
REMARK   84  A    between atoms: _210  and  _211
REMARK   85  A    between atoms: _211  and  _212
REMARK   86  A    between atoms: _221  and  _223
REMARK   87  A    between atoms: _223  and  _224
REMARK   88  A    between atoms: _223  and  _226
REMARK   89  A    between atoms: _226  and  _227
REMARK   90  A    between atoms: _232  and  _234
REMARK   91  A    between atoms: _234  and  _235
REMARK   92  A    between atoms: _234  and  _237
REMARK   93  A    between atoms: _237  and  _238
REMARK   94  A    between atoms: _243  and  _245
REMARK   95  A    between atoms: _245  and  _246
REMARK   96  A    between atoms: _245  and  _248
REMARK   97  A    between atoms: _248  and  _249
REMARK   98  A    between atoms: _252  and  _254
REMARK   99  A    between atoms: _254  and  _255
REMARK  100  A    between atoms: _254  and  _257
REMARK  101  A    between atoms: _257  and  _258
REMARK  102  A    between atoms: _258  and  _259
REMARK  103  A    between atoms: _262  and  _264
REMARK  104  A    between atoms: _264  and  _265
REMARK  105  A    between atoms: _264  and  _267
REMARK  106  A    between atoms: _267  and  _268
REMARK  107  A    between atoms: _271  and  _273
REMARK  108  A    between atoms: _273  and  _274
REMARK  109  A    between atoms: _273  and  _276
REMARK  110  A    between atoms: _276  and  _277
REMARK  111  A    between atoms: _282  and  _284
REMARK  112  A    between atoms: _284  and  _285
REMARK  113  A    between atoms: _284  and  _287
REMARK  114  A    between atoms: _287  and  _288
REMARK  115  A    between atoms: _291  and  _293
REMARK  116  A    between atoms: _293  and  _294
REMARK  117  A    between atoms: _296  and  _298
REMARK  118  A    between atoms: _298  and  _299
REMARK  119  A    between atoms: _298  and  _301
REMARK  120  A    between atoms: _301  and  _302
REMARK  121  A    between atoms: _307  and  _308
REMARK  122  A    between atoms: _310  and  _312
REMARK  123  A    between atoms: _312  and  _313
REMARK  124  A    between atoms: _312  and  _315
REMARK  125  A    between atoms: _315  and  _316
REMARK  126  A    between atoms: _321  and  _322
REMARK  127  A    between atoms: _324  and  _326
REMARK  128  A    between atoms: _326  and  _327
REMARK  129  A    between atoms: _326  and  _329
REMARK  130  A    between atoms: _329  and  _330
REMARK  131  A    between atoms: _330  and  _331
REMARK  132  A    between atoms: _334  and  _336
REMARK  133  A    between atoms: _336  and  _337
REMARK  134  A    between atoms: _336  and  _339
REMARK  135  A    between atoms: _339  and  _340
REMARK  136  A    between atoms: _340  and  _341
REMARK  137  A    between atoms: _341  and  _342
REMARK  138  A    between atoms: _351  and  _353
REMARK  139  A    between atoms: _353  and  _354
REMARK  140  A    between atoms: _353  and  _356
REMARK  141  A    between atoms: _356  and  _357
REMARK                            x       y       z     vdW  Elec       q    Type
REMARK                         _______ _______ _______ _____ _____    ______ ____
ROOT
ATOM      1  CA  TYR A   6      20.113  -1.404  -0.755  0.00  0.00    +0.153 C 
ENDROOT
BRANCH   1   4
ATOM      2  C   TYR A   5      21.050  -1.072   1.490  0.00  0.00    +0.241 C 
ATOM      3  O   TYR A   5      21.529  -2.206   1.543  0.00  0.00    -0.273 OA
ATOM      4  N   TYR A   6      20.483  -0.573   0.398  0.00  0.00    -0.297 N 
ATOM      5  H   TYR A   6      20.293   0.449   0.357  0.00  0.00    +0.150 HD
BRANCH   2   6
ATOM      6  CA  TYR A   5      21.146  -0.131   2.688  0.00  0.00    +0.153 C 
BRANCH   6   9
ATOM      7  C   GLY A   4      23.198   1.086   3.180  0.00  0.00    +0.243 C 
ATOM      8  O   GLY A   4      23.412   0.410   4.186  0.00  0.00    -0.273 OA
ATOM      9  N   TYR A   5      22.122   0.912   2.410  0.00  0.00    -0.297 N 
ATOM     10  H   TYR A   5      21.977   1.537   1.591  0.00  0.00    +0.150 HD
BRANCH   7  11
ATOM     11  CA  GLY A   4      24.176   2.183   2.779  0.00  0.00    +0.176 C 
BRANCH  11  14
ATOM     12  C   ASP A   3      23.158   3.798   1.262  0.00  0.00    +0.241 C 
ATOM     13  O   ASP A   3      22.644   4.448   2.192  0.00  0.00    -0.273 OA
ATOM     14  N   GLY A   4      23.906   2.713   1.451  0.00  0.00    -0.295 N 
ATOM     15  H   GLY A   4      24.310   2.229   0.624  0.00  0.00    +0.150 HD
BRANCH  12  16
ATOM     16  CA  ASP A   3      22.909   4.204  -0.179  0.00  0.00    +0.160 C 
BRANCH  16  18
ATOM     17  C   HIS A   2      24.224   3.247  -2.006  0.00  0.00    +0.241 C 
ATOM     18  N   ASP A   3      23.275   3.108  -1.073  0.00  0.00    -0.297 N 
ATOM     19  H   ASP A   3      22.785   2.195  -0.982  0.00  0.00    +0.150 HD
ATOM     20  O   HIS A   2      24.833   4.276  -2.178  0.00  0.00    -0.273 OA
BRANCH  17  21
ATOM     21  CA  HIS A   2      24.544   2.014  -2.847  0.00  0.00    +0.155 C 
BRANCH  21  23
ATOM     22  C   ASP A   1      24.145   2.920  -5.144  0.00  0.00    +0.239 C 
ATOM     23  N   HIS A   2      24.916   2.333  -4.242  0.00  0.00    -0.297 N 
ATOM     24  H   HIS A   2      25.876   2.071  -4.544  0.00  0.00    +0.150 HD
ATOM     25  O   ASP A   1      23.055   3.447  -4.879  0.00  0.00    -0.274 OA
BRANCH  22  26
ATOM     26  CA  ASP A   1      24.676   2.898  -6.596  0.00  0.00    +0.156 C 
BRANCH  26  27
ATOM     27  N   ASP A   1      24.221   4.129  -7.274  0.00  0.00    -0.238 NA
ATOM     28  H   ASP A   1      24.527   5.050  -6.901  0.00  0.00    +0.142 HD
ENDBRANCH  26  27
BRANCH  26  29
ATOM     29  CB  ASP A   1      26.222   2.854  -6.704  0.00  0.00    +0.140 C 
BRANCH  29  30
ATOM     30  CG  ASP A   1      26.862   1.456  -6.479  0.00  0.00    +0.367 C 
ATOM     31  OD2 ASP A   1      26.329   0.585  -5.734  0.00  0.00    -0.246 OA
ATOM     32  OD1 ASP A   1      27.957   1.255  -7.054  0.00  0.00    -0.246 OA
ENDBRANCH  29  30
ENDBRANCH  26  29
ENDBRANCH  22  26
ENDBRANCH  21  23
BRANCH  21  33
ATOM     33  CB  HIS A   2      25.750   1.327  -2.233  0.00  0.00    +0.076 C 
BRANCH  33  34
ATOM     34  CG  HIS A   2      25.482   0.645  -0.929  0.00  0.00    +0.082 A 
ATOM     35  ND1 HIS A   2      26.269   0.838   0.193  0.00  0.00    -0.227 NA
ATOM     36  CE1 HIS A   2      25.827   0.065   1.173  0.00  0.00    +0.199 A 
ATOM     37  NE2 HIS A   2      24.808  -0.642   0.716  0.00  0.00    -0.221 NA
ATOM     38  CD2 HIS A   2      24.580  -0.302  -0.599  0.00  0.00    +0.115 A 
ENDBRANCH  33  34
ENDBRANCH  21  33
ENDBRANCH  17  21
ENDBRANCH  16  18
BRANCH  16  39
ATOM     39  CB  ASP A   3      21.424   4.554  -0.352  0.00  0.00    +0.143 C 
BRANCH  39  40
ATOM     40  CG  ASP A   3      20.494   3.406   0.048  0.00  0.00    +0.367 C 
ATOM     41  OD2 ASP A   3      20.987   2.282   0.276  0.00  0.00    -0.246 OA
ATOM     42  OD1 ASP A   3      19.250   3.630   0.125  0.00  0.00    -0.246 OA
ENDBRANCH  39  40
ENDBRANCH  16  39
ENDBRANCH  12  16
ENDBRANCH  11  14
ENDBRANCH   7  11
ENDBRANCH   6   9
BRANCH   6  43
ATOM     43  CB  TYR A   5      19.763   0.451   3.021  0.00  0.00    +0.055 C 
BRANCH  43  44
ATOM     44  CG  TYR A   5      19.744   1.464   4.147  0.00  0.00    -0.020 A 
ATOM     45  CD2 TYR A   5      19.471   1.063   5.462  0.00  0.00    -0.001 A 
ATOM     46  CE2 TYR A   5      19.458   1.983   6.501  0.00  0.00    +0.036 A 
ATOM     47  CZ  TYR A   5      19.706   3.326   6.229  0.00  0.00    +0.134 A 
ATOM     48  CE1 TYR A   5      19.968   3.758   4.928  0.00  0.00    +0.036 A 
ATOM     49  CD1 TYR A   5      19.981   2.827   3.897  0.00  0.00    -0.001 A 
BRANCH  47  50
ATOM     50  OH  TYR A   5      19.681   4.239   7.268  0.00  0.00    -0.506 OA
ATOM     51  HH  TYR A   5      19.875   5.144   6.916  0.00  0.00    +0.292 HD
ENDBRANCH  47  50
ENDBRANCH  43  44
ENDBRANCH   6  43
ENDBRANCH   2   6
ENDBRANCH   1   4
BRANCH   1  52
ATOM     52  C   TYR A   6      21.300  -1.800  -1.610  0.00  0.00    +0.241 C 
ATOM     53  O   TYR A   6      22.189  -0.985  -1.846  0.00  0.00    -0.273 OA
ATOM     54  N   GLU A   7      21.279  -3.037  -2.107  0.00  0.00    -0.297 N 
ATOM     55  H   GLU A   7      20.544  -3.703  -1.796  0.00  0.00    +0.150 HD
BRANCH  54  56
ATOM     56  CA  GLU A   7      22.279  -3.469  -3.086  0.00  0.00    +0.149 C 
BRANCH  56  57
ATOM     57  C   GLU A   7      21.654  -3.506  -4.471  0.00  0.00    +0.241 C 
ATOM     58  O   GLU A   7      20.964  -4.459  -4.830  0.00  0.00    -0.273 OA
ATOM     59  N   ARG A   8      21.883  -2.441  -5.243  0.00  0.00    -0.297 N 
ATOM     60  H   ARG A   8      22.531  -1.702  -4.902  0.00  0.00    +0.150 HD
BRANCH  59  61
ATOM     61  CA  ARG A   8      21.252  -2.281  -6.552  0.00  0.00    +0.149 C 
BRANCH  61  62
ATOM     62  C   ARG A   8      21.792  -1.006  -7.215  0.00  0.00    +0.241 C 
ATOM     63  O   ARG A   8      22.235  -0.097  -6.516  0.00  0.00    -0.273 OA
ATOM     64  N   PHE A   9      21.759  -0.970  -8.549  0.00  0.00    -0.298 N 
ATOM     65  H   PHE A   9      21.593  -1.851  -9.076  0.00  0.00    +0.150 HD
BRANCH  64  66
ATOM     66  CA  PHE A   9      21.952   0.285  -9.293  0.00  0.00    +0.141 C 
BRANCH  66  67
ATOM     67  C   PHE A   9      20.551   0.702  -9.760  0.00  0.00    +0.227 C 
ATOM     68  O   PHE A   9      20.056   0.169 -10.761  0.00  0.00    -0.286 OA
ENDBRANCH  66  67
BRANCH  66  69
ATOM     69  CB  PHE A   9      22.835   0.078 -10.531  0.00  0.00    +0.054 C 
BRANCH  69  70
ATOM     70  CG  PHE A   9      24.324  -0.217 -10.251  0.00  0.00    -0.020 A 
ATOM     71  CD2 PHE A   9      24.837  -0.468  -8.961  0.00  0.00    -0.004 A 
ATOM     72  CE2 PHE A   9      26.213  -0.754  -8.784  0.00  0.00    -0.000 A 
ATOM     73  CZ  PHE A   9      27.074  -0.804  -9.904  0.00  0.00    -0.000 A 
ATOM     74  CE1 PHE A   9      26.549  -0.585 -11.185  0.00  0.00    -0.000 A 
ATOM     75  CD1 PHE A   9      25.196  -0.304 -11.346  0.00  0.00    -0.004 A 
ENDBRANCH  69  70
ENDBRANCH  66  69
ENDBRANCH  64  66
ENDBRANCH  61  62
BRANCH  61  76
ATOM     76  CB  ARG A   8      19.729  -2.164  -6.404  0.00  0.00    +0.033 C 
BRANCH  76  77
ATOM     77  CG  ARG A   8      19.270  -0.910  -5.638  0.00  0.00    +0.045 C 
BRANCH  77  78
ATOM     78  CD  ARG A   8      17.759  -0.876  -5.484  0.00  0.00    +0.174 C 
BRANCH  78  79
ATOM     79  NE  ARG A   8      17.393   0.239  -4.606  0.00  0.00    -0.265 N 
ATOM     80  CZ  ARG A   8      16.202   0.418  -4.042  0.00  0.00    +0.342 C 
ATOM     81  NH2 ARG A   8      16.017   1.473  -3.233  0.00  0.00    -0.292 N 
ATOM     82 HH21 ARG A   8      15.092   1.628  -2.784  0.00  0.00    +0.255 HD
ATOM     83 HH22 ARG A   8      16.799   2.136  -3.055  0.00  0.00    +0.255 HD
ATOM     84  NH1 ARG A   8      15.208  -0.444  -4.261  0.00  0.00    -0.292 N 
ATOM     85 HH11 ARG A   8      14.281  -0.293  -3.814  0.00  0.00    +0.255 HD
ATOM     86 HH12 ARG A   8      15.360  -1.267  -4.879  0.00  0.00    +0.255 HD
ATOM     87  HE  ARG A   8      18.126   0.950  -4.407  0.00  0.00    +0.259 HD
ENDBRANCH  78  79
ENDBRANCH  77  78
ENDBRANCH  76  77
ENDBRANCH  61  76
ENDBRANCH  59  61
ENDBRANCH  56  57
BRANCH  56  88
ATOM     88  CB  GLU A   7      22.876  -4.834  -2.704  0.00  0.00    +0.041 C 
BRANCH  88  89
ATOM     89  CG  GLU A   7      23.757  -4.745  -1.491  0.00  0.00    +0.116 C 
BRANCH  89  90
ATOM     90  CD  GLU A   7      25.026  -3.938  -1.735  0.00  0.00    +0.365 C 
ATOM     91  OE2 GLU A   7      25.588  -3.416  -0.745  0.00  0.00    -0.246 OA
ATOM     92  OE1 GLU A   7      25.468  -3.826  -2.914  0.00  0.00    -0.246 OA
ENDBRANCH  89  90
ENDBRANCH  88  89
ENDBRANCH  56  88
ENDBRANCH  54  56
ENDBRANCH   1  52
BRANCH   1  93
ATOM     93  CB  TYR A   6      19.168  -0.634  -1.662  0.00  0.00    +0.055 C 
BRANCH  93  94
ATOM     94  CG  TYR A   6      17.786  -0.478  -1.076  0.00  0.00    -0.020 A 
ATOM     95  CD2 TYR A   6      17.458   0.658  -0.326  0.00  0.00    -0.001 A 
ATOM     96  CE2 TYR A   6      16.187   0.803   0.222  0.00  0.00    +0.036 A 
ATOM     97  CZ  TYR A   6      15.247  -0.179   0.027  0.00  0.00    +0.134 A 
ATOM     98  CE1 TYR A   6      15.544  -1.313  -0.714  0.00  0.00    +0.036 A 
ATOM     99  CD1 TYR A   6      16.812  -1.457  -1.267  0.00  0.00    -0.001 A 
BRANCH  97 100
ATOM    100  OH  TYR A   6      13.981  -0.042   0.557  0.00  0.00    -0.506 OA
ATOM    101  HH  TYR A   6      13.438  -0.836   0.321  0.00  0.00    +0.292 HD
ENDBRANCH  97 100
ENDBRANCH  93  94
ENDBRANCH   1  93
TORSDOF 39
REMARK  Name = ../refined-set-2016/2r1y/2r1y_pocket.pdb
REMARK  141 active torsions:
REMARK  status: ('A' for Active; 'I' for Inactive)
REMARK    1  A    between atoms: _1  and  _3
REMARK    2  A    between atoms: _3  and  _4
REMARK    3  A    between atoms: _3  and  _6
REMARK    4  A    between atoms: _6  and  _7
REMARK    5  A    between atoms: _10  and  _12
REMARK    6  A    between atoms: _12  and  _13
REMARK    7  A    between atoms: _12  and  _15
REMARK    8  A    between atoms: _15  and  _16
REMARK    9  A    between atoms: _21  and  _23
REMARK   10  A    between atoms: _23  and  _24
REMARK   11  A    between atoms: _23  and  _26
REMARK   12  A    between atoms: _26  and  _27
REMARK   13  A    between atoms: _29  and  _31
REMARK   14  A    between atoms: _31  and  _32
REMARK   15  A    between atoms: _31  and  _34
REMARK   16  A    between atoms: _34  and  _35
REMARK   17  A    between atoms: _35  and  _36
REMARK   18  A    between atoms: _36  and  _37
REMARK   19  A    between atoms: _46  and  _48
REMARK   20  A    between atoms: _48  and  _49
REMARK   21  A    between atoms: _48  and  _51
REMARK   22  A    between atoms: _51  and  _52
REMARK   23  A    between atoms: _55  and  _57
REMARK   24  A    between atoms: _57  and  _58
REMARK   25  A    between atoms: _57  and  _60
REMARK   26  A    between atoms: _60  and  _61
REMARK   27  A    between atoms: _66  and  _67
REMARK   28  A    between atoms: _69  and  _71
REMARK   29  A    between atoms: _71  and  _72
REMARK   30  A    between atoms: _71  and  _74
REMARK   31  A    between atoms: _74  and  _75
REMARK   32  A    between atoms: _85  and  _87
REMARK   33  A    between atoms: _87  and  _88
REMARK   34  A    between atoms: _87  and  _90
REMARK   35  A    between atoms: _90  and  _91
REMARK   36  A    between atoms: _91  and  _92
REMARK   37  A    between atoms: _92  and  _93
REMARK   38  A    between atoms: _93  and  _94
REMARK   39  A    between atoms: _98  and  _100
REMARK   40  A    between atoms: _100  and  _101
REMARK   41  A    between atoms: _100  and  _103
REMARK   42  A    between atoms: _103  and  _104
REMARK   43  A    between atoms: _104  and  _105
REMARK   44  A    between atoms: _110  and  _112
REMARK   45  A    between atoms: _112  and  _113
REMARK   46  A    between atoms: _112  and  _115
REMARK   47  A    between atoms: _115  and  _116
REMARK   48  A    between atoms: _118  and  _120
REMARK   49  A    between atoms: _120  and  _121
REMARK   50  A    between atoms: _120  and  _123
REMARK   51  A    between atoms: _123  and  _124
REMARK   52  A    between atoms: _129  and  _130
REMARK   53  A    between atoms: _132  and  _134
REMARK   54  A    between atoms: _134  and  _135
REMARK   55  A    between atoms: _134  and  _137
REMARK   56  A    between atoms: _137  and  _138
REMARK   57  A    between atoms: _143  and  _145
REMARK   58  A    between atoms: _145  and  _146
REMARK   59  A    between atoms: _145  and  _148
REMARK   60  A    between atoms: _148  and  _149
REMARK   61  A    between atoms: _152  and  _154
REMARK   62  A    between atoms: _154  and  _155
REMARK   63  A    between atoms: _154  and  _157
REMARK   64  A    between atoms: _157  and  _158
REMARK   65  A    between atoms: _158  and  _159
REMARK   66  A    between atoms: _159  and  _160
REMARK   67  A    between atoms: _169  and  _171
REMARK   68  A    between atoms: _171  and  _172
REMARK   69  A    between atoms: _171  and  _174
REMARK   70  A    between atoms: _174  and  _175
REMARK   71  A    between atoms: _180  and  _181
REMARK   72  A    between atoms: _183  and  _185
REMARK   73  A    between atoms: _185  and  _186
REMARK   74  A    between atoms: _185  and  _188
REMARK   75  A    between atoms: _188  and  _189
REMARK   76  A    between atoms: _195  and  _197
REMARK   77  A    between atoms: _197  and  _198
REMARK   78  A    between atoms: _197  and  _200
REMARK   79  A    between atoms: _200  and  _201
REMARK   80  A    between atoms: _204  and  _206
REMARK   81  A    between atoms: _206  and  _207
REMARK   82  A    between atoms: _206  and  _209
REMARK   83  A    between atoms: _209  and  _210
REMARK   84  A    between atoms: _210  and  _211
REMARK   85  A    between atoms: _211  and  _212
REMARK   86  A    between atoms: _221  and  _223
REMARK   87  A    between atoms: _223  and  _224
REMARK   88  A    between atoms: _223  and  _226
REMARK   89  A    between atoms: _226  and  _227
REMARK   90  A    between atoms: _232  and  _234
REMARK   91  A    between atoms: _234  and  _235
REMARK   92  A    between atoms: _234  and  _237
REMARK   93  A    between atoms: _237  and  _238
REMARK   94  A    between atoms: _243  and  _245
REMARK   95  A    between atoms: _245  and  _246
REMARK   96  A    between atoms: _245  and  _248
REMARK   97  A    between atoms: _248  and  _249
REMARK   98  A    between atoms: _252  and  _254
REMARK   99  A    between atoms: _254  and  _255
REMARK  100  A    between atoms: _254  and  _257
REMARK  101  A    between atoms: _257  and  _258
REMARK  102  A    between atoms: _258  and  _259
REMARK  103  A    between atoms: _262  and  _264
REMARK  104  A    between atoms: _264  and  _265
REMARK  105  A    between atoms: _264  and  _267
REMARK  106  A    between atoms: _267  and  _268
REMARK  107  A    between atoms: _271  and  _273
REMARK  108  A    between atoms: _273  and  _274
REMARK  109  A    between atoms: _273  and  _276
REMARK  110  A    between atoms: _276  and  _277
REMARK  111  A    between atoms: _282  and  _284
REMARK  112  A    between atoms: _284  and  _285
REMARK  113  A    between atoms: _284  and  _287
REMARK  114  A    between atoms: _287  and  _288
REMARK  115  A    between atoms: _291  and  _293
REMARK  116  A    between atoms: _293  and  _294
REMARK  117  A    between atoms: _296  and  _298
REMARK  118  A    between atoms: _298  and  _299
REMARK  119  A    between atoms: _298  and  _301
REMARK  120  A    between atoms: _301  and  _302
REMARK  121  A    between atoms: _307  and  _308
REMARK  122  A    between atoms: _310  and  _312
REMARK  123  A    between atoms: _312  and  _313
REMARK  124  A    between atoms: _312  and  _315
REMARK  125  A    between atoms: _315  and  _316
REMARK  126  A    between atoms: _321  and  _322
REMARK  127  A    between atoms: _324  and  _326
REMARK  128  A    between atoms: _326  and  _327
REMARK  129  A    between atoms: _326  and  _329
REMARK  130  A    between atoms: _329  and  _330
REMARK  131  A    between atoms: _330  and  _331
REMARK  132  A    between atoms: _334  and  _336
REMARK  133  A    between atoms: _336  and  _337
REMARK  134  A    between atoms: _336  and  _339
REMARK  135  A    between atoms: _339  and  _340
REMARK  136  A    between atoms: _340  and  _341
REMARK  137  A    between atoms: _341  and  _342
REMARK  138  A    between atoms: _351  and  _353
REMARK  139  A    between atoms: _353  and  _354
REMARK  140  A    between atoms: _353  and  _356
REMARK  141  A    between atoms: _356  and  _357
REMARK                            x       y       z     vdW  Elec       q    Type
REMARK                         _______ _______ _______ _____ _____    ______ ____
ROOT
ATOM      1  O   HOH     1      24.017  -6.670  -6.582  0.00  0.00    +0.000 OA
ENDROOT
TORSDOF 0
REMARK  Name = ../refined-set-2016/2r1y/2r1y_pocket.pdb
REMARK  141 active torsions:
REMARK  status: ('A' for Active; 'I' for Inactive)
REMARK    1  A    between atoms: _1  and  _3
REMARK    2  A    between atoms: _3  and  _4
REMARK    3  A    between atoms: _3  and  _6
REMARK    4  A    between atoms: _6  and  _7
REMARK    5  A    between atoms: _10  and  _12
REMARK    6  A    between atoms: _12  and  _13
REMARK    7  A    between atoms: _12  and  _15
REMARK    8  A    between atoms: _15  and  _16
REMARK    9  A    between atoms: _21  and  _23
REMARK   10  A    between atoms: _23  and  _24
REMARK   11  A    between atoms: _23  and  _26
REMARK   12  A    between atoms: _26  and  _27
REMARK   13  A    between atoms: _29  and  _31
REMARK   14  A    between atoms: _31  and  _32
REMARK   15  A    between atoms: _31  and  _34
REMARK   16  A    between atoms: _34  and  _35
REMARK   17  A    between atoms: _35  and  _36
REMARK   18  A    between atoms: _36  and  _37
REMARK   19  A    between atoms: _46  and  _48
REMARK   20  A    between atoms: _48  and  _49
REMARK   21  A    between atoms: _48  and  _51
REMARK   22  A    between atoms: _51  and  _52
REMARK   23  A    between atoms: _55  and  _57
REMARK   24  A    between atoms: _57  and  _58
REMARK   25  A    between atoms: _57  and  _60
REMARK   26  A    between atoms: _60  and  _61
REMARK   27  A    between atoms: _66  and  _67
REMARK   28  A    between atoms: _69  and  _71
REMARK   29  A    between atoms: _71  and  _72
REMARK   30  A    between atoms: _71  and  _74
REMARK   31  A    between atoms: _74  and  _75
REMARK   32  A    between atoms: _85  and  _87
REMARK   33  A    between atoms: _87  and  _88
REMARK   34  A    between atoms: _87  and  _90
REMARK   35  A    between atoms: _90  and  _91
REMARK   36  A    between atoms: _91  and  _92
REMARK   37  A    between atoms: _92  and  _93
REMARK   38  A    between atoms: _93  and  _94
REMARK   39  A    between atoms: _98  and  _100
REMARK   40  A    between atoms: _100  and  _101
REMARK   41  A    between atoms: _100  and  _103
REMARK   42  A    between atoms: _103  and  _104
REMARK   43  A    between atoms: _104  and  _105
REMARK   44  A    between atoms: _110  and  _112
REMARK   45  A    between atoms: _112  and  _113
REMARK   46  A    between atoms: _112  and  _115
REMARK   47  A    between atoms: _115  and  _116
REMARK   48  A    between atoms: _118  and  _120
REMARK   49  A    between atoms: _120  and  _121
REMARK   50  A    between atoms: _120  and  _123
REMARK   51  A    between atoms: _123  and  _124
REMARK   52  A    between atoms: _129  and  _130
REMARK   53  A    between atoms: _132  and  _134
REMARK   54  A    between atoms: _134  and  _135
REMARK   55  A    between atoms: _134  and  _137
REMARK   56  A    between atoms: _137  and  _138
REMARK   57  A    between atoms: _143  and  _145
REMARK   58  A    between atoms: _145  and  _146
REMARK   59  A    between atoms: _145  and  _148
REMARK   60  A    between atoms: _148  and  _149
REMARK   61  A    between atoms: _152  and  _154
REMARK   62  A    between atoms: _154  and  _155
REMARK   63  A    between atoms: _154  and  _157
REMARK   64  A    between atoms: _157  and  _158
REMARK   65  A    between atoms: _158  and  _159
REMARK   66  A    between atoms: _159  and  _160
REMARK   67  A    between atoms: _169  and  _171
REMARK   68  A    between atoms: _171  and  _172
REMARK   69  A    between atoms: _171  and  _174
REMARK   70  A    between atoms: _174  and  _175
REMARK   71  A    between atoms: _180  and  _181
REMARK   72  A    between atoms: _183  and  _185
REMARK   73  A    between atoms: _185  and  _186
REMARK   74  A    between atoms: _185  and  _188
REMARK   75  A    between atoms: _188  and  _189
REMARK   76  A    between atoms: _195  and  _197
REMARK   77  A    between atoms: _197  and  _198
REMARK   78  A    between atoms: _197  and  _200
REMARK   79  A    between atoms: _200  and  _201
REMARK   80  A    between atoms: _204  and  _206
REMARK   81  A    between atoms: _206  and  _207
REMARK   82  A    between atoms: _206  and  _209
REMARK   83  A    between atoms: _209  and  _210
REMARK   84  A    between atoms: _210  and  _211
REMARK   85  A    between atoms: _211  and  _212
REMARK   86  A    between atoms: _221  and  _223
REMARK   87  A    between atoms: _223  and  _224
REMARK   88  A    between atoms: _223  and  _226
REMARK   89  A    between atoms: _226  and  _227
REMARK   90  A    between atoms: _232  and  _234
REMARK   91  A    between atoms: _234  and  _235
REMARK   92  A    between atoms: _234  and  _237
REMARK   93  A    between atoms: _237  and  _238
REMARK   94  A    between atoms: _243  and  _245
REMARK   95  A    between atoms: _245  and  _246
REMARK   96  A    between atoms: _245  and  _248
REMARK   97  A    between atoms: _248  and  _249
REMARK   98  A    between atoms: _252  and  _254
REMARK   99  A    between atoms: _254  and  _255
REMARK  100  A    between atoms: _254  and  _257
REMARK  101  A    between atoms: _257  and  _258
REMARK  102  A    between atoms: _258  and  _259
REMARK  103  A    between atoms: _262  and  _264
REMARK  104  A    between atoms: _264  and  _265
REMARK  105  A    between atoms: _264  and  _267
REMARK  106  A    between atoms: _267  and  _268
REMARK  107  A    between atoms: _271  and  _273
REMARK  108  A    between atoms: _273  and  _274
REMARK  109  A    between atoms: _273  and  _276
REMARK  110  A    between atoms: _276  and  _277
REMARK  111  A    between atoms: _282  and  _284
REMARK  112  A    between atoms: _284  and  _285
REMARK  113  A    between atoms: _284  and  _287
REMARK  114  A    between atoms: _287  and  _288
REMARK  115  A    between atoms: _291  and  _293
REMARK  116  A    between atoms: _293  and  _294
REMARK  117  A    between atoms: _296  and  _298
REMARK  118  A    between atoms: _298  and  _299
REMARK  119  A    between atoms: _298  and  _301
REMARK  120  A    between atoms: _301  and  _302
REMARK  121  A    between atoms: _307  and  _308
REMARK  122  A    between atoms: _310  and  _312
REMARK  123  A    between atoms: _312  and  _313
REMARK  124  A    between atoms: _312  and  _315
REMARK  125  A    between atoms: _315  and  _316
REMARK  126  A    between atoms: _321  and  _322
REMARK  127  A    between atoms: _324  and  _326
REMARK  128  A    between atoms: _326  and  _327
REMARK  129  A    between atoms: _326  and  _329
REMARK  130  A    between atoms: _329  and  _330
REMARK  131  A    between atoms: _330  and  _331
REMARK  132  A    between atoms: _334  and  _336
REMARK  133  A    between atoms: _336  and  _337
REMARK  134  A    between atoms: _336  and  _339
REMARK  135  A    between atoms: _339  and  _340
REMARK  136  A    between atoms: _340  and  _341
REMARK  137  A    between atoms: _341  and  _342
REMARK  138  A    between atoms: _351  and  _353
REMARK  139  A    between atoms: _353  and  _354
REMARK  140  A    between atoms: _353  and  _356
REMARK  141  A    between atoms: _356  and  _357
REMARK                            x       y       z     vdW  Elec       q    Type
REMARK                         _______ _______ _______ _____ _____    ______ ____
ROOT
ATOM      1  O   HOH     1      38.208  -5.623  -4.237  0.00  0.00    +0.000 OA
ENDROOT
TORSDOF 0
REMARK  Name = ../refined-set-2016/2r1y/2r1y_pocket.pdb
REMARK  141 active torsions:
REMARK  status: ('A' for Active; 'I' for Inactive)
REMARK    1  A    between atoms: _1  and  _3
REMARK    2  A    between atoms: _3  and  _4
REMARK    3  A    between atoms: _3  and  _6
REMARK    4  A    between atoms: _6  and  _7
REMARK    5  A    between atoms: _10  and  _12
REMARK    6  A    between atoms: _12  and  _13
REMARK    7  A    between atoms: _12  and  _15
REMARK    8  A    between atoms: _15  and  _16
REMARK    9  A    between atoms: _21  and  _23
REMARK   10  A    between atoms: _23  and  _24
REMARK   11  A    between atoms: _23  and  _26
REMARK   12  A    between atoms: _26  and  _27
REMARK   13  A    between atoms: _29  and  _31
REMARK   14  A    between atoms: _31  and  _32
REMARK   15  A    between atoms: _31  and  _34
REMARK   16  A    between atoms: _34  and  _35
REMARK   17  A    between atoms: _35  and  _36
REMARK   18  A    between atoms: _36  and  _37
REMARK   19  A    between atoms: _46  and  _48
REMARK   20  A    between atoms: _48  and  _49
REMARK   21  A    between atoms: _48  and  _51
REMARK   22  A    between atoms: _51  and  _52
REMARK   23  A    between atoms: _55  and  _57
REMARK   24  A    between atoms: _57  and  _58
REMARK   25  A    between atoms: _57  and  _60
REMARK   26  A    between atoms: _60  and  _61
REMARK   27  A    between atoms: _66  and  _67
REMARK   28  A    between atoms: _69  and  _71
REMARK   29  A    between atoms: _71  and  _72
REMARK   30  A    between atoms: _71  and  _74
REMARK   31  A    between atoms: _74  and  _75
REMARK   32  A    between atoms: _85  and  _87
REMARK   33  A    between atoms: _87  and  _88
REMARK   34  A    between atoms: _87  and  _90
REMARK   35  A    between atoms: _90  and  _91
REMARK   36  A    between atoms: _91  and  _92
REMARK   37  A    between atoms: _92  and  _93
REMARK   38  A    between atoms: _93  and  _94
REMARK   39  A    between atoms: _98  and  _100
REMARK   40  A    between atoms: _100  and  _101
REMARK   41  A    between atoms: _100  and  _103
REMARK   42  A    between atoms: _103  and  _104
REMARK   43  A    between atoms: _104  and  _105
REMARK   44  A    between atoms: _110  and  _112
REMARK   45  A    between atoms: _112  and  _113
REMARK   46  A    between atoms: _112  and  _115
REMARK   47  A    between atoms: _115  and  _116
REMARK   48  A    between atoms: _118  and  _120
REMARK   49  A    between atoms: _120  and  _121
REMARK   50  A    between atoms: _120  and  _123
REMARK   51  A    between atoms: _123  and  _124
REMARK   52  A    between atoms: _129  and  _130
REMARK   53  A    between atoms: _132  and  _134
REMARK   54  A    between atoms: _134  and  _135
REMARK   55  A    between atoms: _134  and  _137
REMARK   56  A    between atoms: _137  and  _138
REMARK   57  A    between atoms: _143  and  _145
REMARK   58  A    between atoms: _145  and  _146
REMARK   59  A    between atoms: _145  and  _148
REMARK   60  A    between atoms: _148  and  _149
REMARK   61  A    between atoms: _152  and  _154
REMARK   62  A    between atoms: _154  and  _155
REMARK   63  A    between atoms: _154  and  _157
REMARK   64  A    between atoms: _157  and  _158
REMARK   65  A    between atoms: _158  and  _159
REMARK   66  A    between atoms: _159  and  _160
REMARK   67  A    between atoms: _169  and  _171
REMARK   68  A    between atoms: _171  and  _172
REMARK   69  A    between atoms: _171  and  _174
REMARK   70  A    between atoms: _174  and  _175
REMARK   71  A    between atoms: _180  and  _181
REMARK   72  A    between atoms: _183  and  _185
REMARK   73  A    between atoms: _185  and  _186
REMARK   74  A    between atoms: _185  and  _188
REMARK   75  A    between atoms: _188  and  _189
REMARK   76  A    between atoms: _195  and  _197
REMARK   77  A    between atoms: _197  and  _198
REMARK   78  A    between atoms: _197  and  _200
REMARK   79  A    between atoms: _200  and  _201
REMARK   80  A    between atoms: _204  and  _206
REMARK   81  A    between atoms: _206  and  _207
REMARK   82  A    between atoms: _206  and  _209
REMARK   83  A    between atoms: _209  and  _210
REMARK   84  A    between atoms: _210  and  _211
REMARK   85  A    between atoms: _211  and  _212
REMARK   86  A    between atoms: _221  and  _223
REMARK   87  A    between atoms: _223  and  _224
REMARK   88  A    between atoms: _223  and  _226
REMARK   89  A    between atoms: _226  and  _227
REMARK   90  A    between atoms: _232  and  _234
REMARK   91  A    between atoms: _234  and  _235
REMARK   92  A    between atoms: _234  and  _237
REMARK   93  A    between atoms: _237  and  _238
REMARK   94  A    between atoms: _243  and  _245
REMARK   95  A    between atoms: _245  and  _246
REMARK   96  A    between atoms: _245  and  _248
REMARK   97  A    between atoms: _248  and  _249
REMARK   98  A    between atoms: _252  and  _254
REMARK   99  A    between atoms: _254  and  _255
REMARK  100  A    between atoms: _254  and  _257
REMARK  101  A    between atoms: _257  and  _258
REMARK  102  A    between atoms: _258  and  _259
REMARK  103  A    between atoms: _262  and  _264
REMARK  104  A    between atoms: _264  and  _265
REMARK  105  A    between atoms: _264  and  _267
REMARK  106  A    between atoms: _267  and  _268
REMARK  107  A    between atoms: _271  and  _273
REMARK  108  A    between atoms: _273  and  _274
REMARK  109  A    between atoms: _273  and  _276
REMARK  110  A    between atoms: _276  and  _277
REMARK  111  A    between atoms: _282  and  _284
REMARK  112  A    between atoms: _284  and  _285
REMARK  113  A    between atoms: _284  and  _287
REMARK  114  A    between atoms: _287  and  _288
REMARK  115  A    between atoms: _291  and  _293
REMARK  116  A    between atoms: _293  and  _294
REMARK  117  A    between atoms: _296  and  _298
REMARK  118  A    between atoms: _298  and  _299
REMARK  119  A    between atoms: _298  and  _301
REMARK  120  A    between atoms: _301  and  _302
REMARK  121  A    between atoms: _307  and  _308
REMARK  122  A    between atoms: _310  and  _312
REMARK  123  A    between atoms: _312  and  _313
REMARK  124  A    between atoms: _312  and  _315
REMARK  125  A    between atoms: _315  and  _316
REMARK  126  A    between atoms: _321  and  _322
REMARK  127  A    between atoms: _324  and  _326
REMARK  128  A    between atoms: _326  and  _327
REMARK  129  A    between atoms: _326  and  _329
REMARK  130  A    between atoms: _329  and  _330
REMARK  131  A    between atoms: _330  and  _331
REMARK  132  A    between atoms: _334  and  _336
REMARK  133  A    between atoms: _336  and  _337
REMARK  134  A    between atoms: _336  and  _339
REMARK  135  A    between atoms: _339  and  _340
REMARK  136  A    between atoms: _340  and  _341
REMARK  137  A    between atoms: _341  and  _342
REMARK  138  A    between atoms: _351  and  _353
REMARK  139  A    between atoms: _353  and  _354
REMARK  140  A    between atoms: _353  and  _356
REMARK  141  A    between atoms: _356  and  _357
REMARK                            x       y       z     vdW  Elec       q    Type
REMARK                         _______ _______ _______ _____ _____    ______ ____
ROOT
ATOM      1  O   HOH     1      27.310  -5.359   3.244  0.00  0.00    +0.000 OA
ENDROOT
TORSDOF 0
REMARK  Name = ../refined-set-2016/2r1y/2r1y_pocket.pdb
REMARK  141 active torsions:
REMARK  status: ('A' for Active; 'I' for Inactive)
REMARK    1  A    between atoms: _1  and  _3
REMARK    2  A    between atoms: _3  and  _4
REMARK    3  A    between atoms: _3  and  _6
REMARK    4  A    between atoms: _6  and  _7
REMARK    5  A    between atoms: _10  and  _12
REMARK    6  A    between atoms: _12  and  _13
REMARK    7  A    between atoms: _12  and  _15
REMARK    8  A    between atoms: _15  and  _16
REMARK    9  A    between atoms: _21  and  _23
REMARK   10  A    between atoms: _23  and  _24
REMARK   11  A    between atoms: _23  and  _26
REMARK   12  A    between atoms: _26  and  _27
REMARK   13  A    between atoms: _29  and  _31
REMARK   14  A    between atoms: _31  and  _32
REMARK   15  A    between atoms: _31  and  _34
REMARK   16  A    between atoms: _34  and  _35
REMARK   17  A    between atoms: _35  and  _36
REMARK   18  A    between atoms: _36  and  _37
REMARK   19  A    between atoms: _46  and  _48
REMARK   20  A    between atoms: _48  and  _49
REMARK   21  A    between atoms: _48  and  _51
REMARK   22  A    between atoms: _51  and  _52
REMARK   23  A    between atoms: _55  and  _57
REMARK   24  A    between atoms: _57  and  _58
REMARK   25  A    between atoms: _57  and  _60
REMARK   26  A    between atoms: _60  and  _61
REMARK   27  A    between atoms: _66  and  _67
REMARK   28  A    between atoms: _69  and  _71
REMARK   29  A    between atoms: _71  and  _72
REMARK   30  A    between atoms: _71  and  _74
REMARK   31  A    between atoms: _74  and  _75
REMARK   32  A    between atoms: _85  and  _87
REMARK   33  A    between atoms: _87  and  _88
REMARK   34  A    between atoms: _87  and  _90
REMARK   35  A    between atoms: _90  and  _91
REMARK   36  A    between atoms: _91  and  _92
REMARK   37  A    between atoms: _92  and  _93
REMARK   38  A    between atoms: _93  and  _94
REMARK   39  A    between atoms: _98  and  _100
REMARK   40  A    between atoms: _100  and  _101
REMARK   41  A    between atoms: _100  and  _103
REMARK   42  A    between atoms: _103  and  _104
REMARK   43  A    between atoms: _104  and  _105
REMARK   44  A    between atoms: _110  and  _112
REMARK   45  A    between atoms: _112  and  _113
REMARK   46  A    between atoms: _112  and  _115
REMARK   47  A    between atoms: _115  and  _116
REMARK   48  A    between atoms: _118  and  _120
REMARK   49  A    between atoms: _120  and  _121
REMARK   50  A    between atoms: _120  and  _123
REMARK   51  A    between atoms: _123  and  _124
REMARK   52  A    between atoms: _129  and  _130
REMARK   53  A    between atoms: _132  and  _134
REMARK   54  A    between atoms: _134  and  _135
REMARK   55  A    between atoms: _134  and  _137
REMARK   56  A    between atoms: _137  and  _138
REMARK   57  A    between atoms: _143  and  _145
REMARK   58  A    between atoms: _145  and  _146
REMARK   59  A    between atoms: _145  and  _148
REMARK   60  A    between atoms: _148  and  _149
REMARK   61  A    between atoms: _152  and  _154
REMARK   62  A    between atoms: _154  and  _155
REMARK   63  A    between atoms: _154  and  _157
REMARK   64  A    between atoms: _157  and  _158
REMARK   65  A    between atoms: _158  and  _159
REMARK   66  A    between atoms: _159  and  _160
REMARK   67  A    between atoms: _169  and  _171
REMARK   68  A    between atoms: _171  and  _172
REMARK   69  A    between atoms: _171  and  _174
REMARK   70  A    between atoms: _174  and  _175
REMARK   71  A    between atoms: _180  and  _181
REMARK   72  A    between atoms: _183  and  _185
REMARK   73  A    between atoms: _185  and  _186
REMARK   74  A    between atoms: _185  and  _188
REMARK   75  A    between atoms: _188  and  _189
REMARK   76  A    between atoms: _195  and  _197
REMARK   77  A    between atoms: _197  and  _198
REMARK   78  A    between atoms: _197  and  _200
REMARK   79  A    between atoms: _200  and  _201
REMARK   80  A    between atoms: _204  and  _206
REMARK   81  A    between atoms: _206  and  _207
REMARK   82  A    between atoms: _206  and  _209
REMARK   83  A    between atoms: _209  and  _210
REMARK   84  A    between atoms: _210  and  _211
REMARK   85  A    between atoms: _211  and  _212
REMARK   86  A    between atoms: _221  and  _223
REMARK   87  A    between atoms: _223  and  _224
REMARK   88  A    between atoms: _223  and  _226
REMARK   89  A    between atoms: _226  and  _227
REMARK   90  A    between atoms: _232  and  _234
REMARK   91  A    between atoms: _234  and  _235
REMARK   92  A    between atoms: _234  and  _237
REMARK   93  A    between atoms: _237  and  _238
REMARK   94  A    between atoms: _243  and  _245
REMARK   95  A    between atoms: _245  and  _246
REMARK   96  A    between atoms: _245  and  _248
REMARK   97  A    between atoms: _248  and  _249
REMARK   98  A    between atoms: _252  and  _254
REMARK   99  A    between atoms: _254  and  _255
REMARK  100  A    between atoms: _254  and  _257
REMARK  101  A    between atoms: _257  and  _258
REMARK  102  A    between atoms: _258  and  _259
REMARK  103  A    between atoms: _262  and  _264
REMARK  104  A    between atoms: _264  and  _265
REMARK  105  A    between atoms: _264  and  _267
REMARK  106  A    between atoms: _267  and  _268
REMARK  107  A    between atoms: _271  and  _273
REMARK  108  A    between atoms: _273  and  _274
REMARK  109  A    between atoms: _273  and  _276
REMARK  110  A    between atoms: _276  and  _277
REMARK  111  A    between atoms: _282  and  _284
REMARK  112  A    between atoms: _284  and  _285
REMARK  113  A    between atoms: _284  and  _287
REMARK  114  A    between atoms: _287  and  _288
REMARK  115  A    between atoms: _291  and  _293
REMARK  116  A    between atoms: _293  and  _294
REMARK  117  A    between atoms: _296  and  _298
REMARK  118  A    between atoms: _298  and  _299
REMARK  119  A    between atoms: _298  and  _301
REMARK  120  A    between atoms: _301  and  _302
REMARK  121  A    between atoms: _307  and  _308
REMARK  122  A    between atoms: _310  and  _312
REMARK  123  A    between atoms: _312  and  _313
REMARK  124  A    between atoms: _312  and  _315
REMARK  125  A    between atoms: _315  and  _316
REMARK  126  A    between atoms: _321  and  _322
REMARK  127  A    between atoms: _324  and  _326
REMARK  128  A    between atoms: _326  and  _327
REMARK  129  A    between atoms: _326  and  _329
REMARK  130  A    between atoms: _329  and  _330
REMARK  131  A    between atoms: _330  and  _331
REMARK  132  A    between atoms: _334  and  _336
REMARK  133  A    between atoms: _336  and  _337
REMARK  134  A    between atoms: _336  and  _339
REMARK  135  A    between atoms: _339  and  _340
REMARK  136  A    between atoms: _340  and  _341
REMARK  137  A    between atoms: _341  and  _342
REMARK  138  A    between atoms: _351  and  _353
REMARK  139  A    between atoms: _353  and  _354
REMARK  140  A    between atoms: _353  and  _356
REMARK  141  A    between atoms: _356  and  _357
REMARK                            x       y       z     vdW  Elec       q    Type
REMARK                         _______ _______ _______ _____ _____    ______ ____
ROOT
ATOM      1  O   HOH     1      35.140 -10.849  -1.179  0.00  0.00    +0.000 OA
ENDROOT
TORSDOF 0
REMARK  Name = ../refined-set-2016/2r1y/2r1y_pocket.pdb
REMARK  141 active torsions:
REMARK  status: ('A' for Active; 'I' for Inactive)
REMARK    1  A    between atoms: _1  and  _3
REMARK    2  A    between atoms: _3  and  _4
REMARK    3  A    between atoms: _3  and  _6
REMARK    4  A    between atoms: _6  and  _7
REMARK    5  A    between atoms: _10  and  _12
REMARK    6  A    between atoms: _12  and  _13
REMARK    7  A    between atoms: _12  and  _15
REMARK    8  A    between atoms: _15  and  _16
REMARK    9  A    between atoms: _21  and  _23
REMARK   10  A    between atoms: _23  and  _24
REMARK   11  A    between atoms: _23  and  _26
REMARK   12  A    between atoms: _26  and  _27
REMARK   13  A    between atoms: _29  and  _31
REMARK   14  A    between atoms: _31  and  _32
REMARK   15  A    between atoms: _31  and  _34
REMARK   16  A    between atoms: _34  and  _35
REMARK   17  A    between atoms: _35  and  _36
REMARK   18  A    between atoms: _36  and  _37
REMARK   19  A    between atoms: _46  and  _48
REMARK   20  A    between atoms: _48  and  _49
REMARK   21  A    between atoms: _48  and  _51
REMARK   22  A    between atoms: _51  and  _52
REMARK   23  A    between atoms: _55  and  _57
REMARK   24  A    between atoms: _57  and  _58
REMARK   25  A    between atoms: _57  and  _60
REMARK   26  A    between atoms: _60  and  _61
REMARK   27  A    between atoms: _66  and  _67
REMARK   28  A    between atoms: _69  and  _71
REMARK   29  A    between atoms: _71  and  _72
REMARK   30  A    between atoms: _71  and  _74
REMARK   31  A    between atoms: _74  and  _75
REMARK   32  A    between atoms: _85  and  _87
REMARK   33  A    between atoms: _87  and  _88
REMARK   34  A    between atoms: _87  and  _90
REMARK   35  A    between atoms: _90  and  _91
REMARK   36  A    between atoms: _91  and  _92
REMARK   37  A    between atoms: _92  and  _93
REMARK   38  A    between atoms: _93  and  _94
REMARK   39  A    between atoms: _98  and  _100
REMARK   40  A    between atoms: _100  and  _101
REMARK   41  A    between atoms: _100  and  _103
REMARK   42  A    between atoms: _103  and  _104
REMARK   43  A    between atoms: _104  and  _105
REMARK   44  A    between atoms: _110  and  _112
REMARK   45  A    between atoms: _112  and  _113
REMARK   46  A    between atoms: _112  and  _115
REMARK   47  A    between atoms: _115  and  _116
REMARK   48  A    between atoms: _118  and  _120
REMARK   49  A    between atoms: _120  and  _121
REMARK   50  A    between atoms: _120  and  _123
REMARK   51  A    between atoms: _123  and  _124
REMARK   52  A    between atoms: _129  and  _130
REMARK   53  A    between atoms: _132  and  _134
REMARK   54  A    between atoms: _134  and  _135
REMARK   55  A    between atoms: _134  and  _137
REMARK   56  A    between atoms: _137  and  _138
REMARK   57  A    between atoms: _143  and  _145
REMARK   58  A    between atoms: _145  and  _146
REMARK   59  A    between atoms: _145  and  _148
REMARK   60  A    between atoms: _148  and  _149
REMARK   61  A    between atoms: _152  and  _154
REMARK   62  A    between atoms: _154  and  _155
REMARK   63  A    between atoms: _154  and  _157
REMARK   64  A    between atoms: _157  and  _158
REMARK   65  A    between atoms: _158  and  _159
REMARK   66  A    between atoms: _159  and  _160
REMARK   67  A    between atoms: _169  and  _171
REMARK   68  A    between atoms: _171  and  _172
REMARK   69  A    between atoms: _171  and  _174
REMARK   70  A    between atoms: _174  and  _175
REMARK   71  A    between atoms: _180  and  _181
REMARK   72  A    between atoms: _183  and  _185
REMARK   73  A    between atoms: _185  and  _186
REMARK   74  A    between atoms: _185  and  _188
REMARK   75  A    between atoms: _188  and  _189
REMARK   76  A    between atoms: _195  and  _197
REMARK   77  A    between atoms: _197  and  _198
REMARK   78  A    between atoms: _197  and  _200
REMARK   79  A    between atoms: _200  and  _201
REMARK   80  A    between atoms: _204  and  _206
REMARK   81  A    between atoms: _206  and  _207
REMARK   82  A    between atoms: _206  and  _209
REMARK   83  A    between atoms: _209  and  _210
REMARK   84  A    between atoms: _210  and  _211
REMARK   85  A    between atoms: _211  and  _212
REMARK   86  A    between atoms: _221  and  _223
REMARK   87  A    between atoms: _223  and  _224
REMARK   88  A    between atoms: _223  and  _226
REMARK   89  A    between atoms: _226  and  _227
REMARK   90  A    between atoms: _232  and  _234
REMARK   91  A    between atoms: _234  and  _235
REMARK   92  A    between atoms: _234  and  _237
REMARK   93  A    between atoms: _237  and  _238
REMARK   94  A    between atoms: _243  and  _245
REMARK   95  A    between atoms: _245  and  _246
REMARK   96  A    between atoms: _245  and  _248
REMARK   97  A    between atoms: _248  and  _249
REMARK   98  A    between atoms: _252  and  _254
REMARK   99  A    between atoms: _254  and  _255
REMARK  100  A    between atoms: _254  and  _257
REMARK  101  A    between atoms: _257  and  _258
REMARK  102  A    between atoms: _258  and  _259
REMARK  103  A    between atoms: _262  and  _264
REMARK  104  A    between atoms: _264  and  _265
REMARK  105  A    between atoms: _264  and  _267
REMARK  106  A    between atoms: _267  and  _268
REMARK  107  A    between atoms: _271  and  _273
REMARK  108  A    between atoms: _273  and  _274
REMARK  109  A    between atoms: _273  and  _276
REMARK  110  A    between atoms: _276  and  _277
REMARK  111  A    between atoms: _282  and  _284
REMARK  112  A    between atoms: _284  and  _285
REMARK  113  A    between atoms: _284  and  _287
REMARK  114  A    between atoms: _287  and  _288
REMARK  115  A    between atoms: _291  and  _293
REMARK  116  A    between atoms: _293  and  _294
REMARK  117  A    between atoms: _296  and  _298
REMARK  118  A    between atoms: _298  and  _299
REMARK  119  A    between atoms: _298  and  _301
REMARK  120  A    between atoms: _301  and  _302
REMARK  121  A    between atoms: _307  and  _308
REMARK  122  A    between atoms: _310  and  _312
REMARK  123  A    between atoms: _312  and  _313
REMARK  124  A    between atoms: _312  and  _315
REMARK  125  A    between atoms: _315  and  _316
REMARK  126  A    between atoms: _321  and  _322
REMARK  127  A    between atoms: _324  and  _326
REMARK  128  A    between atoms: _326  and  _327
REMARK  129  A    between atoms: _326  and  _329
REMARK  130  A    between atoms: _329  and  _330
REMARK  131  A    between atoms: _330  and  _331
REMARK  132  A    between atoms: _334  and  _336
REMARK  133  A    between atoms: _336  and  _337
REMARK  134  A    between atoms: _336  and  _339
REMARK  135  A    between atoms: _339  and  _340
REMARK  136  A    between atoms: _340  and  _341
REMARK  137  A    between atoms: _341  and  _342
REMARK  138  A    between atoms: _351  and  _353
REMARK  139  A    between atoms: _353  and  _354
REMARK  140  A    between atoms: _353  and  _356
REMARK  141  A    between atoms: _356  and  _357
REMARK                            x       y       z     vdW  Elec       q    Type
REMARK                         _______ _______ _______ _____ _____    ______ ____
ROOT
ATOM      1  O   HOH     1      24.663  -1.411  -4.509  0.00  0.00    +0.000 OA
ENDROOT
TORSDOF 0
REMARK  Name = ../refined-set-2016/2r1y/2r1y_pocket.pdb
REMARK  141 active torsions:
REMARK  status: ('A' for Active; 'I' for Inactive)
REMARK    1  A    between atoms: _1  and  _3
REMARK    2  A    between atoms: _3  and  _4
REMARK    3  A    between atoms: _3  and  _6
REMARK    4  A    between atoms: _6  and  _7
REMARK    5  A    between atoms: _10  and  _12
REMARK    6  A    between atoms: _12  and  _13
REMARK    7  A    between atoms: _12  and  _15
REMARK    8  A    between atoms: _15  and  _16
REMARK    9  A    between atoms: _21  and  _23
REMARK   10  A    between atoms: _23  and  _24
REMARK   11  A    between atoms: _23  and  _26
REMARK   12  A    between atoms: _26  and  _27
REMARK   13  A    between atoms: _29  and  _31
REMARK   14  A    between atoms: _31  and  _32
REMARK   15  A    between atoms: _31  and  _34
REMARK   16  A    between atoms: _34  and  _35
REMARK   17  A    between atoms: _35  and  _36
REMARK   18  A    between atoms: _36  and  _37
REMARK   19  A    between atoms: _46  and  _48
REMARK   20  A    between atoms: _48  and  _49
REMARK   21  A    between atoms: _48  and  _51
REMARK   22  A    between atoms: _51  and  _52
REMARK   23  A    between atoms: _55  and  _57
REMARK   24  A    between atoms: _57  and  _58
REMARK   25  A    between atoms: _57  and  _60
REMARK   26  A    between atoms: _60  and  _61
REMARK   27  A    between atoms: _66  and  _67
REMARK   28  A    between atoms: _69  and  _71
REMARK   29  A    between atoms: _71  and  _72
REMARK   30  A    between atoms: _71  and  _74
REMARK   31  A    between atoms: _74  and  _75
REMARK   32  A    between atoms: _85  and  _87
REMARK   33  A    between atoms: _87  and  _88
REMARK   34  A    between atoms: _87  and  _90
REMARK   35  A    between atoms: _90  and  _91
REMARK   36  A    between atoms: _91  and  _92
REMARK   37  A    between atoms: _92  and  _93
REMARK   38  A    between atoms: _93  and  _94
REMARK   39  A    between atoms: _98  and  _100
REMARK   40  A    between atoms: _100  and  _101
REMARK   41  A    between atoms: _100  and  _103
REMARK   42  A    between atoms: _103  and  _104
REMARK   43  A    between atoms: _104  and  _105
REMARK   44  A    between atoms: _110  and  _112
REMARK   45  A    between atoms: _112  and  _113
REMARK   46  A    between atoms: _112  and  _115
REMARK   47  A    between atoms: _115  and  _116
REMARK   48  A    between atoms: _118  and  _120
REMARK   49  A    between atoms: _120  and  _121
REMARK   50  A    between atoms: _120  and  _123
REMARK   51  A    between atoms: _123  and  _124
REMARK   52  A    between atoms: _129  and  _130
REMARK   53  A    between atoms: _132  and  _134
REMARK   54  A    between atoms: _134  and  _135
REMARK   55  A    between atoms: _134  and  _137
REMARK   56  A    between atoms: _137  and  _138
REMARK   57  A    between atoms: _143  and  _145
REMARK   58  A    between atoms: _145  and  _146
REMARK   59  A    between atoms: _145  and  _148
REMARK   60  A    between atoms: _148  and  _149
REMARK   61  A    between atoms: _152  and  _154
REMARK   62  A    between atoms: _154  and  _155
REMARK   63  A    between atoms: _154  and  _157
REMARK   64  A    between atoms: _157  and  _158
REMARK   65  A    between atoms: _158  and  _159
REMARK   66  A    between atoms: _159  and  _160
REMARK   67  A    between atoms: _169  and  _171
REMARK   68  A    between atoms: _171  and  _172
REMARK   69  A    between atoms: _171  and  _174
REMARK   70  A    between atoms: _174  and  _175
REMARK   71  A    between atoms: _180  and  _181
REMARK   72  A    between atoms: _183  and  _185
REMARK   73  A    between atoms: _185  and  _186
REMARK   74  A    between atoms: _185  and  _188
REMARK   75  A    between atoms: _188  and  _189
REMARK   76  A    between atoms: _195  and  _197
REMARK   77  A    between atoms: _197  and  _198
REMARK   78  A    between atoms: _197  and  _200
REMARK   79  A    between atoms: _200  and  _201
REMARK   80  A    between atoms: _204  and  _206
REMARK   81  A    between atoms: _206  and  _207
REMARK   82  A    between atoms: _206  and  _209
REMARK   83  A    between atoms: _209  and  _210
REMARK   84  A    between atoms: _210  and  _211
REMARK   85  A    between atoms: _211  and  _212
REMARK   86  A    between atoms: _221  and  _223
REMARK   87  A    between atoms: _223  and  _224
REMARK   88  A    between atoms: _223  and  _226
REMARK   89  A    between atoms: _226  and  _227
REMARK   90  A    between atoms: _232  and  _234
REMARK   91  A    between atoms: _234  and  _235
REMARK   92  A    between atoms: _234  and  _237
REMARK   93  A    between atoms: _237  and  _238
REMARK   94  A    between atoms: _243  and  _245
REMARK   95  A    between atoms: _245  and  _246
REMARK   96  A    between atoms: _245  and  _248
REMARK   97  A    between atoms: _248  and  _249
REMARK   98  A    between atoms: _252  and  _254
REMARK   99  A    between atoms: _254  and  _255
REMARK  100  A    between atoms: _254  and  _257
REMARK  101  A    between atoms: _257  and  _258
REMARK  102  A    between atoms: _258  and  _259
REMARK  103  A    between atoms: _262  and  _264
REMARK  104  A    between atoms: _264  and  _265
REMARK  105  A    between atoms: _264  and  _267
REMARK  106  A    between atoms: _267  and  _268
REMARK  107  A    between atoms: _271  and  _273
REMARK  108  A    between atoms: _273  and  _274
REMARK  109  A    between atoms: _273  and  _276
REMARK  110  A    between atoms: _276  and  _277
REMARK  111  A    between atoms: _282  and  _284
REMARK  112  A    between atoms: _284  and  _285
REMARK  113  A    between atoms: _284  and  _287
REMARK  114  A    between atoms: _287  and  _288
REMARK  115  A    between atoms: _291  and  _293
REMARK  116  A    between atoms: _293  and  _294
REMARK  117  A    between atoms: _296  and  _298
REMARK  118  A    between atoms: _298  and  _299
REMARK  119  A    between atoms: _298  and  _301
REMARK  120  A    between atoms: _301  and  _302
REMARK  121  A    between atoms: _307  and  _308
REMARK  122  A    between atoms: _310  and  _312
REMARK  123  A    between atoms: _312  and  _313
REMARK  124  A    between atoms: _312  and  _315
REMARK  125  A    between atoms: _315  and  _316
REMARK  126  A    between atoms: _321  and  _322
REMARK  127  A    between atoms: _324  and  _326
REMARK  128  A    between atoms: _326  and  _327
REMARK  129  A    between atoms: _326  and  _329
REMARK  130  A    between atoms: _329  and  _330
REMARK  131  A    between atoms: _330  and  _331
REMARK  132  A    between atoms: _334  and  _336
REMARK  133  A    between atoms: _336  and  _337
REMARK  134  A    between atoms: _336  and  _339
REMARK  135  A    between atoms: _339  and  _340
REMARK  136  A    between atoms: _340  and  _341
REMARK  137  A    between atoms: _341  and  _342
REMARK  138  A    between atoms: _351  and  _353
REMARK  139  A    between atoms: _353  and  _354
REMARK  140  A    between atoms: _353  and  _356
REMARK  141  A    between atoms: _356  and  _357
REMARK                            x       y       z     vdW  Elec       q    Type
REMARK                         _______ _______ _______ _____ _____    ______ ____
ROOT
ATOM      1  O   HOH     1      32.545  -3.559  -2.021  0.00  0.00    +0.000 OA
ENDROOT
TORSDOF 0
REMARK  Name = ../refined-set-2016/2r1y/2r1y_pocket.pdb
REMARK  141 active torsions:
REMARK  status: ('A' for Active; 'I' for Inactive)
REMARK    1  A    between atoms: _1  and  _3
REMARK    2  A    between atoms: _3  and  _4
REMARK    3  A    between atoms: _3  and  _6
REMARK    4  A    between atoms: _6  and  _7
REMARK    5  A    between atoms: _10  and  _12
REMARK    6  A    between atoms: _12  and  _13
REMARK    7  A    between atoms: _12  and  _15
REMARK    8  A    between atoms: _15  and  _16
REMARK    9  A    between atoms: _21  and  _23
REMARK   10  A    between atoms: _23  and  _24
REMARK   11  A    between atoms: _23  and  _26
REMARK   12  A    between atoms: _26  and  _27
REMARK   13  A    between atoms: _29  and  _31
REMARK   14  A    between atoms: _31  and  _32
REMARK   15  A    between atoms: _31  and  _34
REMARK   16  A    between atoms: _34  and  _35
REMARK   17  A    between atoms: _35  and  _36
REMARK   18  A    between atoms: _36  and  _37
REMARK   19  A    between atoms: _46  and  _48
REMARK   20  A    between atoms: _48  and  _49
REMARK   21  A    between atoms: _48  and  _51
REMARK   22  A    between atoms: _51  and  _52
REMARK   23  A    between atoms: _55  and  _57
REMARK   24  A    between atoms: _57  and  _58
REMARK   25  A    between atoms: _57  and  _60
REMARK   26  A    between atoms: _60  and  _61
REMARK   27  A    between atoms: _66  and  _67
REMARK   28  A    between atoms: _69  and  _71
REMARK   29  A    between atoms: _71  and  _72
REMARK   30  A    between atoms: _71  and  _74
REMARK   31  A    between atoms: _74  and  _75
REMARK   32  A    between atoms: _85  and  _87
REMARK   33  A    between atoms: _87  and  _88
REMARK   34  A    between atoms: _87  and  _90
REMARK   35  A    between atoms: _90  and  _91
REMARK   36  A    between atoms: _91  and  _92
REMARK   37  A    between atoms: _92  and  _93
REMARK   38  A    between atoms: _93  and  _94
REMARK   39  A    between atoms: _98  and  _100
REMARK   40  A    between atoms: _100  and  _101
REMARK   41  A    between atoms: _100  and  _103
REMARK   42  A    between atoms: _103  and  _104
REMARK   43  A    between atoms: _104  and  _105
REMARK   44  A    between atoms: _110  and  _112
REMARK   45  A    between atoms: _112  and  _113
REMARK   46  A    between atoms: _112  and  _115
REMARK   47  A    between atoms: _115  and  _116
REMARK   48  A    between atoms: _118  and  _120
REMARK   49  A    between atoms: _120  and  _121
REMARK   50  A    between atoms: _120  and  _123
REMARK   51  A    between atoms: _123  and  _124
REMARK   52  A    between atoms: _129  and  _130
REMARK   53  A    between atoms: _132  and  _134
REMARK   54  A    between atoms: _134  and  _135
REMARK   55  A    between atoms: _134  and  _137
REMARK   56  A    between atoms: _137  and  _138
REMARK   57  A    between atoms: _143  and  _145
REMARK   58  A    between atoms: _145  and  _146
REMARK   59  A    between atoms: _145  and  _148
REMARK   60  A    between atoms: _148  and  _149
REMARK   61  A    between atoms: _152  and  _154
REMARK   62  A    between atoms: _154  and  _155
REMARK   63  A    between atoms: _154  and  _157
REMARK   64  A    between atoms: _157  and  _158
REMARK   65  A    between atoms: _158  and  _159
REMARK   66  A    between atoms: _159  and  _160
REMARK   67  A    between atoms: _169  and  _171
REMARK   68  A    between atoms: _171  and  _172
REMARK   69  A    between atoms: _171  and  _174
REMARK   70  A    between atoms: _174  and  _175
REMARK   71  A    between atoms: _180  and  _181
REMARK   72  A    between atoms: _183  and  _185
REMARK   73  A    between atoms: _185  and  _186
REMARK   74  A    between atoms: _185  and  _188
REMARK   75  A    between atoms: _188  and  _189
REMARK   76  A    between atoms: _195  and  _197
REMARK   77  A    between atoms: _197  and  _198
REMARK   78  A    between atoms: _197  and  _200
REMARK   79  A    between atoms: _200  and  _201
REMARK   80  A    between atoms: _204  and  _206
REMARK   81  A    between atoms: _206  and  _207
REMARK   82  A    between atoms: _206  and  _209
REMARK   83  A    between atoms: _209  and  _210
REMARK   84  A    between atoms: _210  and  _211
REMARK   85  A    between atoms: _211  and  _212
REMARK   86  A    between atoms: _221  and  _223
REMARK   87  A    between atoms: _223  and  _224
REMARK   88  A    between atoms: _223  and  _226
REMARK   89  A    between atoms: _226  and  _227
REMARK   90  A    between atoms: _232  and  _234
REMARK   91  A    between atoms: _234  and  _235
REMARK   92  A    between atoms: _234  and  _237
REMARK   93  A    between atoms: _237  and  _238
REMARK   94  A    between atoms: _243  and  _245
REMARK   95  A    between atoms: _245  and  _246
REMARK   96  A    between atoms: _245  and  _248
REMARK   97  A    between atoms: _248  and  _249
REMARK   98  A    between atoms: _252  and  _254
REMARK   99  A    between atoms: _254  and  _255
REMARK  100  A    between atoms: _254  and  _257
REMARK  101  A    between atoms: _257  and  _258
REMARK  102  A    between atoms: _258  and  _259
REMARK  103  A    between atoms: _262  and  _264
REMARK  104  A    between atoms: _264  and  _265
REMARK  105  A    between atoms: _264  and  _267
REMARK  106  A    between atoms: _267  and  _268
REMARK  107  A    between atoms: _271  and  _273
REMARK  108  A    between atoms: _273  and  _274
REMARK  109  A    between atoms: _273  and  _276
REMARK  110  A    between atoms: _276  and  _277
REMARK  111  A    between atoms: _282  and  _284
REMARK  112  A    between atoms: _284  and  _285
REMARK  113  A    between atoms: _284  and  _287
REMARK  114  A    between atoms: _287  and  _288
REMARK  115  A    between atoms: _291  and  _293
REMARK  116  A    between atoms: _293  and  _294
REMARK  117  A    between atoms: _296  and  _298
REMARK  118  A    between atoms: _298  and  _299
REMARK  119  A    between atoms: _298  and  _301
REMARK  120  A    between atoms: _301  and  _302
REMARK  121  A    between atoms: _307  and  _308
REMARK  122  A    between atoms: _310  and  _312
REMARK  123  A    between atoms: _312  and  _313
REMARK  124  A    between atoms: _312  and  _315
REMARK  125  A    between atoms: _315  and  _316
REMARK  126  A    between atoms: _321  and  _322
REMARK  127  A    between atoms: _324  and  _326
REMARK  128  A    between atoms: _326  and  _327
REMARK  129  A    between atoms: _326  and  _329
REMARK  130  A    between atoms: _329  and  _330
REMARK  131  A    between atoms: _330  and  _331
REMARK  132  A    between atoms: _334  and  _336
REMARK  133  A    between atoms: _336  and  _337
REMARK  134  A    between atoms: _336  and  _339
REMARK  135  A    between atoms: _339  and  _340
REMARK  136  A    between atoms: _340  and  _341
REMARK  137  A    between atoms: _341  and  _342
REMARK  138  A    between atoms: _351  and  _353
REMARK  139  A    between atoms: _353  and  _354
REMARK  140  A    between atoms: _353  and  _356
REMARK  141  A    between atoms: _356  and  _357
REMARK                            x       y       z     vdW  Elec       q    Type
REMARK                         _______ _______ _______ _____ _____    ______ ____
ROOT
ATOM      1  O   HOH     1      33.921  -3.855   0.860  0.00  0.00    +0.000 OA
ENDROOT
TORSDOF 0
REMARK  Name = ../refined-set-2016/2r1y/2r1y_pocket.pdb
REMARK  141 active torsions:
REMARK  status: ('A' for Active; 'I' for Inactive)
REMARK    1  A    between atoms: _1  and  _3
REMARK    2  A    between atoms: _3  and  _4
REMARK    3  A    between atoms: _3  and  _6
REMARK    4  A    between atoms: _6  and  _7
REMARK    5  A    between atoms: _10  and  _12
REMARK    6  A    between atoms: _12  and  _13
REMARK    7  A    between atoms: _12  and  _15
REMARK    8  A    between atoms: _15  and  _16
REMARK    9  A    between atoms: _21  and  _23
REMARK   10  A    between atoms: _23  and  _24
REMARK   11  A    between atoms: _23  and  _26
REMARK   12  A    between atoms: _26  and  _27
REMARK   13  A    between atoms: _29  and  _31
REMARK   14  A    between atoms: _31  and  _32
REMARK   15  A    between atoms: _31  and  _34
REMARK   16  A    between atoms: _34  and  _35
REMARK   17  A    between atoms: _35  and  _36
REMARK   18  A    between atoms: _36  and  _37
REMARK   19  A    between atoms: _46  and  _48
REMARK   20  A    between atoms: _48  and  _49
REMARK   21  A    between atoms: _48  and  _51
REMARK   22  A    between atoms: _51  and  _52
REMARK   23  A    between atoms: _55  and  _57
REMARK   24  A    between atoms: _57  and  _58
REMARK   25  A    between atoms: _57  and  _60
REMARK   26  A    between atoms: _60  and  _61
REMARK   27  A    between atoms: _66  and  _67
REMARK   28  A    between atoms: _69  and  _71
REMARK   29  A    between atoms: _71  and  _72
REMARK   30  A    between atoms: _71  and  _74
REMARK   31  A    between atoms: _74  and  _75
REMARK   32  A    between atoms: _85  and  _87
REMARK   33  A    between atoms: _87  and  _88
REMARK   34  A    between atoms: _87  and  _90
REMARK   35  A    between atoms: _90  and  _91
REMARK   36  A    between atoms: _91  and  _92
REMARK   37  A    between atoms: _92  and  _93
REMARK   38  A    between atoms: _93  and  _94
REMARK   39  A    between atoms: _98  and  _100
REMARK   40  A    between atoms: _100  and  _101
REMARK   41  A    between atoms: _100  and  _103
REMARK   42  A    between atoms: _103  and  _104
REMARK   43  A    between atoms: _104  and  _105
REMARK   44  A    between atoms: _110  and  _112
REMARK   45  A    between atoms: _112  and  _113
REMARK   46  A    between atoms: _112  and  _115
REMARK   47  A    between atoms: _115  and  _116
REMARK   48  A    between atoms: _118  and  _120
REMARK   49  A    between atoms: _120  and  _121
REMARK   50  A    between atoms: _120  and  _123
REMARK   51  A    between atoms: _123  and  _124
REMARK   52  A    between atoms: _129  and  _130
REMARK   53  A    between atoms: _132  and  _134
REMARK   54  A    between atoms: _134  and  _135
REMARK   55  A    between atoms: _134  and  _137
REMARK   56  A    between atoms: _137  and  _138
REMARK   57  A    between atoms: _143  and  _145
REMARK   58  A    between atoms: _145  and  _146
REMARK   59  A    between atoms: _145  and  _148
REMARK   60  A    between atoms: _148  and  _149
REMARK   61  A    between atoms: _152  and  _154
REMARK   62  A    between atoms: _154  and  _155
REMARK   63  A    between atoms: _154  and  _157
REMARK   64  A    between atoms: _157  and  _158
REMARK   65  A    between atoms: _158  and  _159
REMARK   66  A    between atoms: _159  and  _160
REMARK   67  A    between atoms: _169  and  _171
REMARK   68  A    between atoms: _171  and  _172
REMARK   69  A    between atoms: _171  and  _174
REMARK   70  A    between atoms: _174  and  _175
REMARK   71  A    between atoms: _180  and  _181
REMARK   72  A    between atoms: _183  and  _185
REMARK   73  A    between atoms: _185  and  _186
REMARK   74  A    between atoms: _185  and  _188
REMARK   75  A    between atoms: _188  and  _189
REMARK   76  A    between atoms: _195  and  _197
REMARK   77  A    between atoms: _197  and  _198
REMARK   78  A    between atoms: _197  and  _200
REMARK   79  A    between atoms: _200  and  _201
REMARK   80  A    between atoms: _204  and  _206
REMARK   81  A    between atoms: _206  and  _207
REMARK   82  A    between atoms: _206  and  _209
REMARK   83  A    between atoms: _209  and  _210
REMARK   84  A    between atoms: _210  and  _211
REMARK   85  A    between atoms: _211  and  _212
REMARK   86  A    between atoms: _221  and  _223
REMARK   87  A    between atoms: _223  and  _224
REMARK   88  A    between atoms: _223  and  _226
REMARK   89  A    between atoms: _226  and  _227
REMARK   90  A    between atoms: _232  and  _234
REMARK   91  A    between atoms: _234  and  _235
REMARK   92  A    between atoms: _234  and  _237
REMARK   93  A    between atoms: _237  and  _238
REMARK   94  A    between atoms: _243  and  _245
REMARK   95  A    between atoms: _245  and  _246
REMARK   96  A    between atoms: _245  and  _248
REMARK   97  A    between atoms: _248  and  _249
REMARK   98  A    between atoms: _252  and  _254
REMARK   99  A    between atoms: _254  and  _255
REMARK  100  A    between atoms: _254  and  _257
REMARK  101  A    between atoms: _257  and  _258
REMARK  102  A    between atoms: _258  and  _259
REMARK  103  A    between atoms: _262  and  _264
REMARK  104  A    between atoms: _264  and  _265
REMARK  105  A    between atoms: _264  and  _267
REMARK  106  A    between atoms: _267  and  _268
REMARK  107  A    between atoms: _271  and  _273
REMARK  108  A    between atoms: _273  and  _274
REMARK  109  A    between atoms: _273  and  _276
REMARK  110  A    between atoms: _276  and  _277
REMARK  111  A    between atoms: _282  and  _284
REMARK  112  A    between atoms: _284  and  _285
REMARK  113  A    between atoms: _284  and  _287
REMARK  114  A    between atoms: _287  and  _288
REMARK  115  A    between atoms: _291  and  _293
REMARK  116  A    between atoms: _293  and  _294
REMARK  117  A    between atoms: _296  and  _298
REMARK  118  A    between atoms: _298  and  _299
REMARK  119  A    between atoms: _298  and  _301
REMARK  120  A    between atoms: _301  and  _302
REMARK  121  A    between atoms: _307  and  _308
REMARK  122  A    between atoms: _310  and  _312
REMARK  123  A    between atoms: _312  and  _313
REMARK  124  A    between atoms: _312  and  _315
REMARK  125  A    between atoms: _315  and  _316
REMARK  126  A    between atoms: _321  and  _322
REMARK  127  A    between atoms: _324  and  _326
REMARK  128  A    between atoms: _326  and  _327
REMARK  129  A    between atoms: _326  and  _329
REMARK  130  A    between atoms: _329  and  _330
REMARK  131  A    between atoms: _330  and  _331
REMARK  132  A    between atoms: _334  and  _336
REMARK  133  A    between atoms: _336  and  _337
REMARK  134  A    between atoms: _336  and  _339
REMARK  135  A    between atoms: _339  and  _340
REMARK  136  A    between atoms: _340  and  _341
REMARK  137  A    between atoms: _341  and  _342
REMARK  138  A    between atoms: _351  and  _353
REMARK  139  A    between atoms: _353  and  _354
REMARK  140  A    between atoms: _353  and  _356
REMARK  141  A    between atoms: _356  and  _357
REMARK                            x       y       z     vdW  Elec       q    Type
REMARK                         _______ _______ _______ _____ _____    ______ ____
ROOT
ATOM      1  O   HOH     1      21.698   0.741  -3.989  0.00  0.00    +0.000 OA
ENDROOT
TORSDOF 0
REMARK  Name = ../refined-set-2016/2r1y/2r1y_pocket.pdb
REMARK  141 active torsions:
REMARK  status: ('A' for Active; 'I' for Inactive)
REMARK    1  A    between atoms: _1  and  _3
REMARK    2  A    between atoms: _3  and  _4
REMARK    3  A    between atoms: _3  and  _6
REMARK    4  A    between atoms: _6  and  _7
REMARK    5  A    between atoms: _10  and  _12
REMARK    6  A    between atoms: _12  and  _13
REMARK    7  A    between atoms: _12  and  _15
REMARK    8  A    between atoms: _15  and  _16
REMARK    9  A    between atoms: _21  and  _23
REMARK   10  A    between atoms: _23  and  _24
REMARK   11  A    between atoms: _23  and  _26
REMARK   12  A    between atoms: _26  and  _27
REMARK   13  A    between atoms: _29  and  _31
REMARK   14  A    between atoms: _31  and  _32
REMARK   15  A    between atoms: _31  and  _34
REMARK   16  A    between atoms: _34  and  _35
REMARK   17  A    between atoms: _35  and  _36
REMARK   18  A    between atoms: _36  and  _37
REMARK   19  A    between atoms: _46  and  _48
REMARK   20  A    between atoms: _48  and  _49
REMARK   21  A    between atoms: _48  and  _51
REMARK   22  A    between atoms: _51  and  _52
REMARK   23  A    between atoms: _55  and  _57
REMARK   24  A    between atoms: _57  and  _58
REMARK   25  A    between atoms: _57  and  _60
REMARK   26  A    between atoms: _60  and  _61
REMARK   27  A    between atoms: _66  and  _67
REMARK   28  A    between atoms: _69  and  _71
REMARK   29  A    between atoms: _71  and  _72
REMARK   30  A    between atoms: _71  and  _74
REMARK   31  A    between atoms: _74  and  _75
REMARK   32  A    between atoms: _85  and  _87
REMARK   33  A    between atoms: _87  and  _88
REMARK   34  A    between atoms: _87  and  _90
REMARK   35  A    between atoms: _90  and  _91
REMARK   36  A    between atoms: _91  and  _92
REMARK   37  A    between atoms: _92  and  _93
REMARK   38  A    between atoms: _93  and  _94
REMARK   39  A    between atoms: _98  and  _100
REMARK   40  A    between atoms: _100  and  _101
REMARK   41  A    between atoms: _100  and  _103
REMARK   42  A    between atoms: _103  and  _104
REMARK   43  A    between atoms: _104  and  _105
REMARK   44  A    between atoms: _110  and  _112
REMARK   45  A    between atoms: _112  and  _113
REMARK   46  A    between atoms: _112  and  _115
REMARK   47  A    between atoms: _115  and  _116
REMARK   48  A    between atoms: _118  and  _120
REMARK   49  A    between atoms: _120  and  _121
REMARK   50  A    between atoms: _120  and  _123
REMARK   51  A    between atoms: _123  and  _124
REMARK   52  A    between atoms: _129  and  _130
REMARK   53  A    between atoms: _132  and  _134
REMARK   54  A    between atoms: _134  and  _135
REMARK   55  A    between atoms: _134  and  _137
REMARK   56  A    between atoms: _137  and  _138
REMARK   57  A    between atoms: _143  and  _145
REMARK   58  A    between atoms: _145  and  _146
REMARK   59  A    between atoms: _145  and  _148
REMARK   60  A    between atoms: _148  and  _149
REMARK   61  A    between atoms: _152  and  _154
REMARK   62  A    between atoms: _154  and  _155
REMARK   63  A    between atoms: _154  and  _157
REMARK   64  A    between atoms: _157  and  _158
REMARK   65  A    between atoms: _158  and  _159
REMARK   66  A    between atoms: _159  and  _160
REMARK   67  A    between atoms: _169  and  _171
REMARK   68  A    between atoms: _171  and  _172
REMARK   69  A    between atoms: _171  and  _174
REMARK   70  A    between atoms: _174  and  _175
REMARK   71  A    between atoms: _180  and  _181
REMARK   72  A    between atoms: _183  and  _185
REMARK   73  A    between atoms: _185  and  _186
REMARK   74  A    between atoms: _185  and  _188
REMARK   75  A    between atoms: _188  and  _189
REMARK   76  A    between atoms: _195  and  _197
REMARK   77  A    between atoms: _197  and  _198
REMARK   78  A    between atoms: _197  and  _200
REMARK   79  A    between atoms: _200  and  _201
REMARK   80  A    between atoms: _204  and  _206
REMARK   81  A    between atoms: _206  and  _207
REMARK   82  A    between atoms: _206  and  _209
REMARK   83  A    between atoms: _209  and  _210
REMARK   84  A    between atoms: _210  and  _211
REMARK   85  A    between atoms: _211  and  _212
REMARK   86  A    between atoms: _221  and  _223
REMARK   87  A    between atoms: _223  and  _224
REMARK   88  A    between atoms: _223  and  _226
REMARK   89  A    between atoms: _226  and  _227
REMARK   90  A    between atoms: _232  and  _234
REMARK   91  A    between atoms: _234  and  _235
REMARK   92  A    between atoms: _234  and  _237
REMARK   93  A    between atoms: _237  and  _238
REMARK   94  A    between atoms: _243  and  _245
REMARK   95  A    between atoms: _245  and  _246
REMARK   96  A    between atoms: _245  and  _248
REMARK   97  A    between atoms: _248  and  _249
REMARK   98  A    between atoms: _252  and  _254
REMARK   99  A    between atoms: _254  and  _255
REMARK  100  A    between atoms: _254  and  _257
REMARK  101  A    between atoms: _257  and  _258
REMARK  102  A    between atoms: _258  and  _259
REMARK  103  A    between atoms: _262  and  _264
REMARK  104  A    between atoms: _264  and  _265
REMARK  105  A    between atoms: _264  and  _267
REMARK  106  A    between atoms: _267  and  _268
REMARK  107  A    between atoms: _271  and  _273
REMARK  108  A    between atoms: _273  and  _274
REMARK  109  A    between atoms: _273  and  _276
REMARK  110  A    between atoms: _276  and  _277
REMARK  111  A    between atoms: _282  and  _284
REMARK  112  A    between atoms: _284  and  _285
REMARK  113  A    between atoms: _284  and  _287
REMARK  114  A    between atoms: _287  and  _288
REMARK  115  A    between atoms: _291  and  _293
REMARK  116  A    between atoms: _293  and  _294
REMARK  117  A    between atoms: _296  and  _298
REMARK  118  A    between atoms: _298  and  _299
REMARK  119  A    between atoms: _298  and  _301
REMARK  120  A    between atoms: _301  and  _302
REMARK  121  A    between atoms: _307  and  _308
REMARK  122  A    between atoms: _310  and  _312
REMARK  123  A    between atoms: _312  and  _313
REMARK  124  A    between atoms: _312  and  _315
REMARK  125  A    between atoms: _315  and  _316
REMARK  126  A    between atoms: _321  and  _322
REMARK  127  A    between atoms: _324  and  _326
REMARK  128  A    between atoms: _326  and  _327
REMARK  129  A    between atoms: _326  and  _329
REMARK  130  A    between atoms: _329  and  _330
REMARK  131  A    between atoms: _330  and  _331
REMARK  132  A    between atoms: _334  and  _336
REMARK  133  A    between atoms: _336  and  _337
REMARK  134  A    between atoms: _336  and  _339
REMARK  135  A    between atoms: _339  and  _340
REMARK  136  A    between atoms: _340  and  _341
REMARK  137  A    between atoms: _341  and  _342
REMARK  138  A    between atoms: _351  and  _353
REMARK  139  A    between atoms: _353  and  _354
REMARK  140  A    between atoms: _353  and  _356
REMARK  141  A    between atoms: _356  and  _357
REMARK                            x       y       z     vdW  Elec       q    Type
REMARK                         _______ _______ _______ _____ _____    ______ ____
ROOT
ATOM      1  O   HOH     1      30.377  -8.564   1.293  0.00  0.00    +0.000 OA
ENDROOT
TORSDOF 0
REMARK  Name = ../refined-set-2016/2r1y/2r1y_pocket.pdb
REMARK  141 active torsions:
REMARK  status: ('A' for Active; 'I' for Inactive)
REMARK    1  A    between atoms: _1  and  _3
REMARK    2  A    between atoms: _3  and  _4
REMARK    3  A    between atoms: _3  and  _6
REMARK    4  A    between atoms: _6  and  _7
REMARK    5  A    between atoms: _10  and  _12
REMARK    6  A    between atoms: _12  and  _13
REMARK    7  A    between atoms: _12  and  _15
REMARK    8  A    between atoms: _15  and  _16
REMARK    9  A    between atoms: _21  and  _23
REMARK   10  A    between atoms: _23  and  _24
REMARK   11  A    between atoms: _23  and  _26
REMARK   12  A    between atoms: _26  and  _27
REMARK   13  A    between atoms: _29  and  _31
REMARK   14  A    between atoms: _31  and  _32
REMARK   15  A    between atoms: _31  and  _34
REMARK   16  A    between atoms: _34  and  _35
REMARK   17  A    between atoms: _35  and  _36
REMARK   18  A    between atoms: _36  and  _37
REMARK   19  A    between atoms: _46  and  _48
REMARK   20  A    between atoms: _48  and  _49
REMARK   21  A    between atoms: _48  and  _51
REMARK   22  A    between atoms: _51  and  _52
REMARK   23  A    between atoms: _55  and  _57
REMARK   24  A    between atoms: _57  and  _58
REMARK   25  A    between atoms: _57  and  _60
REMARK   26  A    between atoms: _60  and  _61
REMARK   27  A    between atoms: _66  and  _67
REMARK   28  A    between atoms: _69  and  _71
REMARK   29  A    between atoms: _71  and  _72
REMARK   30  A    between atoms: _71  and  _74
REMARK   31  A    between atoms: _74  and  _75
REMARK   32  A    between atoms: _85  and  _87
REMARK   33  A    between atoms: _87  and  _88
REMARK   34  A    between atoms: _87  and  _90
REMARK   35  A    between atoms: _90  and  _91
REMARK   36  A    between atoms: _91  and  _92
REMARK   37  A    between atoms: _92  and  _93
REMARK   38  A    between atoms: _93  and  _94
REMARK   39  A    between atoms: _98  and  _100
REMARK   40  A    between atoms: _100  and  _101
REMARK   41  A    between atoms: _100  and  _103
REMARK   42  A    between atoms: _103  and  _104
REMARK   43  A    between atoms: _104  and  _105
REMARK   44  A    between atoms: _110  and  _112
REMARK   45  A    between atoms: _112  and  _113
REMARK   46  A    between atoms: _112  and  _115
REMARK   47  A    between atoms: _115  and  _116
REMARK   48  A    between atoms: _118  and  _120
REMARK   49  A    between atoms: _120  and  _121
REMARK   50  A    between atoms: _120  and  _123
REMARK   51  A    between atoms: _123  and  _124
REMARK   52  A    between atoms: _129  and  _130
REMARK   53  A    between atoms: _132  and  _134
REMARK   54  A    between atoms: _134  and  _135
REMARK   55  A    between atoms: _134  and  _137
REMARK   56  A    between atoms: _137  and  _138
REMARK   57  A    between atoms: _143  and  _145
REMARK   58  A    between atoms: _145  and  _146
REMARK   59  A    between atoms: _145  and  _148
REMARK   60  A    between atoms: _148  and  _149
REMARK   61  A    between atoms: _152  and  _154
REMARK   62  A    between atoms: _154  and  _155
REMARK   63  A    between atoms: _154  and  _157
REMARK   64  A    between atoms: _157  and  _158
REMARK   65  A    between atoms: _158  and  _159
REMARK   66  A    between atoms: _159  and  _160
REMARK   67  A    between atoms: _169  and  _171
REMARK   68  A    between atoms: _171  and  _172
REMARK   69  A    between atoms: _171  and  _174
REMARK   70  A    between atoms: _174  and  _175
REMARK   71  A    between atoms: _180  and  _181
REMARK   72  A    between atoms: _183  and  _185
REMARK   73  A    between atoms: _185  and  _186
REMARK   74  A    between atoms: _185  and  _188
REMARK   75  A    between atoms: _188  and  _189
REMARK   76  A    between atoms: _195  and  _197
REMARK   77  A    between atoms: _197  and  _198
REMARK   78  A    between atoms: _197  and  _200
REMARK   79  A    between atoms: _200  and  _201
REMARK   80  A    between atoms: _204  and  _206
REMARK   81  A    between atoms: _206  and  _207
REMARK   82  A    between atoms: _206  and  _209
REMARK   83  A    between atoms: _209  and  _210
REMARK   84  A    between atoms: _210  and  _211
REMARK   85  A    between atoms: _211  and  _212
REMARK   86  A    between atoms: _221  and  _223
REMARK   87  A    between atoms: _223  and  _224
REMARK   88  A    between atoms: _223  and  _226
REMARK   89  A    between atoms: _226  and  _227
REMARK   90  A    between atoms: _232  and  _234
REMARK   91  A    between atoms: _234  and  _235
REMARK   92  A    between atoms: _234  and  _237
REMARK   93  A    between atoms: _237  and  _238
REMARK   94  A    between atoms: _243  and  _245
REMARK   95  A    between atoms: _245  and  _246
REMARK   96  A    between atoms: _245  and  _248
REMARK   97  A    between atoms: _248  and  _249
REMARK   98  A    between atoms: _252  and  _254
REMARK   99  A    between atoms: _254  and  _255
REMARK  100  A    between atoms: _254  and  _257
REMARK  101  A    between atoms: _257  and  _258
REMARK  102  A    between atoms: _258  and  _259
REMARK  103  A    between atoms: _262  and  _264
REMARK  104  A    between atoms: _264  and  _265
REMARK  105  A    between atoms: _264  and  _267
REMARK  106  A    between atoms: _267  and  _268
REMARK  107  A    between atoms: _271  and  _273
REMARK  108  A    between atoms: _273  and  _274
REMARK  109  A    between atoms: _273  and  _276
REMARK  110  A    between atoms: _276  and  _277
REMARK  111  A    between atoms: _282  and  _284
REMARK  112  A    between atoms: _284  and  _285
REMARK  113  A    between atoms: _284  and  _287
REMARK  114  A    between atoms: _287  and  _288
REMARK  115  A    between atoms: _291  and  _293
REMARK  116  A    between atoms: _293  and  _294
REMARK  117  A    between atoms: _296  and  _298
REMARK  118  A    between atoms: _298  and  _299
REMARK  119  A    between atoms: _298  and  _301
REMARK  120  A    between atoms: _301  and  _302
REMARK  121  A    between atoms: _307  and  _308
REMARK  122  A    between atoms: _310  and  _312
REMARK  123  A    between atoms: _312  and  _313
REMARK  124  A    between atoms: _312  and  _315
REMARK  125  A    between atoms: _315  and  _316
REMARK  126  A    between atoms: _321  and  _322
REMARK  127  A    between atoms: _324  and  _326
REMARK  128  A    between atoms: _326  and  _327
REMARK  129  A    between atoms: _326  and  _329
REMARK  130  A    between atoms: _329  and  _330
REMARK  131  A    between atoms: _330  and  _331
REMARK  132  A    between atoms: _334  and  _336
REMARK  133  A    between atoms: _336  and  _337
REMARK  134  A    between atoms: _336  and  _339
REMARK  135  A    between atoms: _339  and  _340
REMARK  136  A    between atoms: _340  and  _341
REMARK  137  A    between atoms: _341  and  _342
REMARK  138  A    between atoms: _351  and  _353
REMARK  139  A    between atoms: _353  and  _354
REMARK  140  A    between atoms: _353  and  _356
REMARK  141  A    between atoms: _356  and  _357
REMARK                            x       y       z     vdW  Elec       q    Type
REMARK                         _______ _______ _______ _____ _____    ______ ____
ROOT
ATOM      1  O   HOH     1      27.287  -0.617   3.229  0.00  0.00    +0.000 OA
ENDROOT
TORSDOF 0
REMARK  Name = ../refined-set-2016/2r1y/2r1y_pocket.pdb
REMARK  141 active torsions:
REMARK  status: ('A' for Active; 'I' for Inactive)
REMARK    1  A    between atoms: _1  and  _3
REMARK    2  A    between atoms: _3  and  _4
REMARK    3  A    between atoms: _3  and  _6
REMARK    4  A    between atoms: _6  and  _7
REMARK    5  A    between atoms: _10  and  _12
REMARK    6  A    between atoms: _12  and  _13
REMARK    7  A    between atoms: _12  and  _15
REMARK    8  A    between atoms: _15  and  _16
REMARK    9  A    between atoms: _21  and  _23
REMARK   10  A    between atoms: _23  and  _24
REMARK   11  A    between atoms: _23  and  _26
REMARK   12  A    between atoms: _26  and  _27
REMARK   13  A    between atoms: _29  and  _31
REMARK   14  A    between atoms: _31  and  _32
REMARK   15  A    between atoms: _31  and  _34
REMARK   16  A    between atoms: _34  and  _35
REMARK   17  A    between atoms: _35  and  _36
REMARK   18  A    between atoms: _36  and  _37
REMARK   19  A    between atoms: _46  and  _48
REMARK   20  A    between atoms: _48  and  _49
REMARK   21  A    between atoms: _48  and  _51
REMARK   22  A    between atoms: _51  and  _52
REMARK   23  A    between atoms: _55  and  _57
REMARK   24  A    between atoms: _57  and  _58
REMARK   25  A    between atoms: _57  and  _60
REMARK   26  A    between atoms: _60  and  _61
REMARK   27  A    between atoms: _66  and  _67
REMARK   28  A    between atoms: _69  and  _71
REMARK   29  A    between atoms: _71  and  _72
REMARK   30  A    between atoms: _71  and  _74
REMARK   31  A    between atoms: _74  and  _75
REMARK   32  A    between atoms: _85  and  _87
REMARK   33  A    between atoms: _87  and  _88
REMARK   34  A    between atoms: _87  and  _90
REMARK   35  A    between atoms: _90  and  _91
REMARK   36  A    between atoms: _91  and  _92
REMARK   37  A    between atoms: _92  and  _93
REMARK   38  A    between atoms: _93  and  _94
REMARK   39  A    between atoms: _98  and  _100
REMARK   40  A    between atoms: _100  and  _101
REMARK   41  A    between atoms: _100  and  _103
REMARK   42  A    between atoms: _103  and  _104
REMARK   43  A    between atoms: _104  and  _105
REMARK   44  A    between atoms: _110  and  _112
REMARK   45  A    between atoms: _112  and  _113
REMARK   46  A    between atoms: _112  and  _115
REMARK   47  A    between atoms: _115  and  _116
REMARK   48  A    between atoms: _118  and  _120
REMARK   49  A    between atoms: _120  and  _121
REMARK   50  A    between atoms: _120  and  _123
REMARK   51  A    between atoms: _123  and  _124
REMARK   52  A    between atoms: _129  and  _130
REMARK   53  A    between atoms: _132  and  _134
REMARK   54  A    between atoms: _134  and  _135
REMARK   55  A    between atoms: _134  and  _137
REMARK   56  A    between atoms: _137  and  _138
REMARK   57  A    between atoms: _143  and  _145
REMARK   58  A    between atoms: _145  and  _146
REMARK   59  A    between atoms: _145  and  _148
REMARK   60  A    between atoms: _148  and  _149
REMARK   61  A    between atoms: _152  and  _154
REMARK   62  A    between atoms: _154  and  _155
REMARK   63  A    between atoms: _154  and  _157
REMARK   64  A    between atoms: _157  and  _158
REMARK   65  A    between atoms: _158  and  _159
REMARK   66  A    between atoms: _159  and  _160
REMARK   67  A    between atoms: _169  and  _171
REMARK   68  A    between atoms: _171  and  _172
REMARK   69  A    between atoms: _171  and  _174
REMARK   70  A    between atoms: _174  and  _175
REMARK   71  A    between atoms: _180  and  _181
REMARK   72  A    between atoms: _183  and  _185
REMARK   73  A    between atoms: _185  and  _186
REMARK   74  A    between atoms: _185  and  _188
REMARK   75  A    between atoms: _188  and  _189
REMARK   76  A    between atoms: _195  and  _197
REMARK   77  A    between atoms: _197  and  _198
REMARK   78  A    between atoms: _197  and  _200
REMARK   79  A    between atoms: _200  and  _201
REMARK   80  A    between atoms: _204  and  _206
REMARK   81  A    between atoms: _206  and  _207
REMARK   82  A    between atoms: _206  and  _209
REMARK   83  A    between atoms: _209  and  _210
REMARK   84  A    between atoms: _210  and  _211
REMARK   85  A    between atoms: _211  and  _212
REMARK   86  A    between atoms: _221  and  _223
REMARK   87  A    between atoms: _223  and  _224
REMARK   88  A    between atoms: _223  and  _226
REMARK   89  A    between atoms: _226  and  _227
REMARK   90  A    between atoms: _232  and  _234
REMARK   91  A    between atoms: _234  and  _235
REMARK   92  A    between atoms: _234  and  _237
REMARK   93  A    between atoms: _237  and  _238
REMARK   94  A    between atoms: _243  and  _245
REMARK   95  A    between atoms: _245  and  _246
REMARK   96  A    between atoms: _245  and  _248
REMARK   97  A    between atoms: _248  and  _249
REMARK   98  A    between atoms: _252  and  _254
REMARK   99  A    between atoms: _254  and  _255
REMARK  100  A    between atoms: _254  and  _257
REMARK  101  A    between atoms: _257  and  _258
REMARK  102  A    between atoms: _258  and  _259
REMARK  103  A    between atoms: _262  and  _264
REMARK  104  A    between atoms: _264  and  _265
REMARK  105  A    between atoms: _264  and  _267
REMARK  106  A    between atoms: _267  and  _268
REMARK  107  A    between atoms: _271  and  _273
REMARK  108  A    between atoms: _273  and  _274
REMARK  109  A    between atoms: _273  and  _276
REMARK  110  A    between atoms: _276  and  _277
REMARK  111  A    between atoms: _282  and  _284
REMARK  112  A    between atoms: _284  and  _285
REMARK  113  A    between atoms: _284  and  _287
REMARK  114  A    between atoms: _287  and  _288
REMARK  115  A    between atoms: _291  and  _293
REMARK  116  A    between atoms: _293  and  _294
REMARK  117  A    between atoms: _296  and  _298
REMARK  118  A    between atoms: _298  and  _299
REMARK  119  A    between atoms: _298  and  _301
REMARK  120  A    between atoms: _301  and  _302
REMARK  121  A    between atoms: _307  and  _308
REMARK  122  A    between atoms: _310  and  _312
REMARK  123  A    between atoms: _312  and  _313
REMARK  124  A    between atoms: _312  and  _315
REMARK  125  A    between atoms: _315  and  _316
REMARK  126  A    between atoms: _321  and  _322
REMARK  127  A    between atoms: _324  and  _326
REMARK  128  A    between atoms: _326  and  _327
REMARK  129  A    between atoms: _326  and  _329
REMARK  130  A    between atoms: _329  and  _330
REMARK  131  A    between atoms: _330  and  _331
REMARK  132  A    between atoms: _334  and  _336
REMARK  133  A    between atoms: _336  and  _337
REMARK  134  A    between atoms: _336  and  _339
REMARK  135  A    between atoms: _339  and  _340
REMARK  136  A    between atoms: _340  and  _341
REMARK  137  A    between atoms: _341  and  _342
REMARK  138  A    between atoms: _351  and  _353
REMARK  139  A    between atoms: _353  and  _354
REMARK  140  A    between atoms: _353  and  _356
REMARK  141  A    between atoms: _356  and  _357
REMARK                            x       y       z     vdW  Elec       q    Type
REMARK                         _______ _______ _______ _____ _____    ______ ____
ROOT
ATOM      1  O   HOH     1      25.322  -3.834   1.919  0.00  0.00    +0.000 OA
ENDROOT
TORSDOF 0
REMARK  Name = ../refined-set-2016/2r1y/2r1y_pocket.pdb
REMARK  141 active torsions:
REMARK  status: ('A' for Active; 'I' for Inactive)
REMARK    1  A    between atoms: _1  and  _3
REMARK    2  A    between atoms: _3  and  _4
REMARK    3  A    between atoms: _3  and  _6
REMARK    4  A    between atoms: _6  and  _7
REMARK    5  A    between atoms: _10  and  _12
REMARK    6  A    between atoms: _12  and  _13
REMARK    7  A    between atoms: _12  and  _15
REMARK    8  A    between atoms: _15  and  _16
REMARK    9  A    between atoms: _21  and  _23
REMARK   10  A    between atoms: _23  and  _24
REMARK   11  A    between atoms: _23  and  _26
REMARK   12  A    between atoms: _26  and  _27
REMARK   13  A    between atoms: _29  and  _31
REMARK   14  A    between atoms: _31  and  _32
REMARK   15  A    between atoms: _31  and  _34
REMARK   16  A    between atoms: _34  and  _35
REMARK   17  A    between atoms: _35  and  _36
REMARK   18  A    between atoms: _36  and  _37
REMARK   19  A    between atoms: _46  and  _48
REMARK   20  A    between atoms: _48  and  _49
REMARK   21  A    between atoms: _48  and  _51
REMARK   22  A    between atoms: _51  and  _52
REMARK   23  A    between atoms: _55  and  _57
REMARK   24  A    between atoms: _57  and  _58
REMARK   25  A    between atoms: _57  and  _60
REMARK   26  A    between atoms: _60  and  _61
REMARK   27  A    between atoms: _66  and  _67
REMARK   28  A    between atoms: _69  and  _71
REMARK   29  A    between atoms: _71  and  _72
REMARK   30  A    between atoms: _71  and  _74
REMARK   31  A    between atoms: _74  and  _75
REMARK   32  A    between atoms: _85  and  _87
REMARK   33  A    between atoms: _87  and  _88
REMARK   34  A    between atoms: _87  and  _90
REMARK   35  A    between atoms: _90  and  _91
REMARK   36  A    between atoms: _91  and  _92
REMARK   37  A    between atoms: _92  and  _93
REMARK   38  A    between atoms: _93  and  _94
REMARK   39  A    between atoms: _98  and  _100
REMARK   40  A    between atoms: _100  and  _101
REMARK   41  A    between atoms: _100  and  _103
REMARK   42  A    between atoms: _103  and  _104
REMARK   43  A    between atoms: _104  and  _105
REMARK   44  A    between atoms: _110  and  _112
REMARK   45  A    between atoms: _112  and  _113
REMARK   46  A    between atoms: _112  and  _115
REMARK   47  A    between atoms: _115  and  _116
REMARK   48  A    between atoms: _118  and  _120
REMARK   49  A    between atoms: _120  and  _121
REMARK   50  A    between atoms: _120  and  _123
REMARK   51  A    between atoms: _123  and  _124
REMARK   52  A    between atoms: _129  and  _130
REMARK   53  A    between atoms: _132  and  _134
REMARK   54  A    between atoms: _134  and  _135
REMARK   55  A    between atoms: _134  and  _137
REMARK   56  A    between atoms: _137  and  _138
REMARK   57  A    between atoms: _143  and  _145
REMARK   58  A    between atoms: _145  and  _146
REMARK   59  A    between atoms: _145  and  _148
REMARK   60  A    between atoms: _148  and  _149
REMARK   61  A    between atoms: _152  and  _154
REMARK   62  A    between atoms: _154  and  _155
REMARK   63  A    between atoms: _154  and  _157
REMARK   64  A    between atoms: _157  and  _158
REMARK   65  A    between atoms: _158  and  _159
REMARK   66  A    between atoms: _159  and  _160
REMARK   67  A    between atoms: _169  and  _171
REMARK   68  A    between atoms: _171  and  _172
REMARK   69  A    between atoms: _171  and  _174
REMARK   70  A    between atoms: _174  and  _175
REMARK   71  A    between atoms: _180  and  _181
REMARK   72  A    between atoms: _183  and  _185
REMARK   73  A    between atoms: _185  and  _186
REMARK   74  A    between atoms: _185  and  _188
REMARK   75  A    between atoms: _188  and  _189
REMARK   76  A    between atoms: _195  and  _197
REMARK   77  A    between atoms: _197  and  _198
REMARK   78  A    between atoms: _197  and  _200
REMARK   79  A    between atoms: _200  and  _201
REMARK   80  A    between atoms: _204  and  _206
REMARK   81  A    between atoms: _206  and  _207
REMARK   82  A    between atoms: _206  and  _209
REMARK   83  A    between atoms: _209  and  _210
REMARK   84  A    between atoms: _210  and  _211
REMARK   85  A    between atoms: _211  and  _212
REMARK   86  A    between atoms: _221  and  _223
REMARK   87  A    between atoms: _223  and  _224
REMARK   88  A    between atoms: _223  and  _226
REMARK   89  A    between atoms: _226  and  _227
REMARK   90  A    between atoms: _232  and  _234
REMARK   91  A    between atoms: _234  and  _235
REMARK   92  A    between atoms: _234  and  _237
REMARK   93  A    between atoms: _237  and  _238
REMARK   94  A    between atoms: _243  and  _245
REMARK   95  A    between atoms: _245  and  _246
REMARK   96  A    between atoms: _245  and  _248
REMARK   97  A    between atoms: _248  and  _249
REMARK   98  A    between atoms: _252  and  _254
REMARK   99  A    between atoms: _254  and  _255
REMARK  100  A    between atoms: _254  and  _257
REMARK  101  A    between atoms: _257  and  _258
REMARK  102  A    between atoms: _258  and  _259
REMARK  103  A    between atoms: _262  and  _264
REMARK  104  A    between atoms: _264  and  _265
REMARK  105  A    between atoms: _264  and  _267
REMARK  106  A    between atoms: _267  and  _268
REMARK  107  A    between atoms: _271  and  _273
REMARK  108  A    between atoms: _273  and  _274
REMARK  109  A    between atoms: _273  and  _276
REMARK  110  A    between atoms: _276  and  _277
REMARK  111  A    between atoms: _282  and  _284
REMARK  112  A    between atoms: _284  and  _285
REMARK  113  A    between atoms: _284  and  _287
REMARK  114  A    between atoms: _287  and  _288
REMARK  115  A    between atoms: _291  and  _293
REMARK  116  A    between atoms: _293  and  _294
REMARK  117  A    between atoms: _296  and  _298
REMARK  118  A    between atoms: _298  and  _299
REMARK  119  A    between atoms: _298  and  _301
REMARK  120  A    between atoms: _301  and  _302
REMARK  121  A    between atoms: _307  and  _308
REMARK  122  A    between atoms: _310  and  _312
REMARK  123  A    between atoms: _312  and  _313
REMARK  124  A    between atoms: _312  and  _315
REMARK  125  A    between atoms: _315  and  _316
REMARK  126  A    between atoms: _321  and  _322
REMARK  127  A    between atoms: _324  and  _326
REMARK  128  A    between atoms: _326  and  _327
REMARK  129  A    between atoms: _326  and  _329
REMARK  130  A    between atoms: _329  and  _330
REMARK  131  A    between atoms: _330  and  _331
REMARK  132  A    between atoms: _334  and  _336
REMARK  133  A    between atoms: _336  and  _337
REMARK  134  A    between atoms: _336  and  _339
REMARK  135  A    between atoms: _339  and  _340
REMARK  136  A    between atoms: _340  and  _341
REMARK  137  A    between atoms: _341  and  _342
REMARK  138  A    between atoms: _351  and  _353
REMARK  139  A    between atoms: _353  and  _354
REMARK  140  A    between atoms: _353  and  _356
REMARK  141  A    between atoms: _356  and  _357
REMARK                            x       y       z     vdW  Elec       q    Type
REMARK                         _______ _______ _______ _____ _____    ______ ____
ROOT
ATOM      1  O   HOH     1      29.413  -7.012   5.277  0.00  0.00    +0.000 OA
ENDROOT
TORSDOF 0
REMARK  Name = ../refined-set-2016/2r1y/2r1y_pocket.pdb
REMARK  141 active torsions:
REMARK  status: ('A' for Active; 'I' for Inactive)
REMARK    1  A    between atoms: _1  and  _3
REMARK    2  A    between atoms: _3  and  _4
REMARK    3  A    between atoms: _3  and  _6
REMARK    4  A    between atoms: _6  and  _7
REMARK    5  A    between atoms: _10  and  _12
REMARK    6  A    between atoms: _12  and  _13
REMARK    7  A    between atoms: _12  and  _15
REMARK    8  A    between atoms: _15  and  _16
REMARK    9  A    between atoms: _21  and  _23
REMARK   10  A    between atoms: _23  and  _24
REMARK   11  A    between atoms: _23  and  _26
REMARK   12  A    between atoms: _26  and  _27
REMARK   13  A    between atoms: _29  and  _31
REMARK   14  A    between atoms: _31  and  _32
REMARK   15  A    between atoms: _31  and  _34
REMARK   16  A    between atoms: _34  and  _35
REMARK   17  A    between atoms: _35  and  _36
REMARK   18  A    between atoms: _36  and  _37
REMARK   19  A    between atoms: _46  and  _48
REMARK   20  A    between atoms: _48  and  _49
REMARK   21  A    between atoms: _48  and  _51
REMARK   22  A    between atoms: _51  and  _52
REMARK   23  A    between atoms: _55  and  _57
REMARK   24  A    between atoms: _57  and  _58
REMARK   25  A    between atoms: _57  and  _60
REMARK   26  A    between atoms: _60  and  _61
REMARK   27  A    between atoms: _66  and  _67
REMARK   28  A    between atoms: _69  and  _71
REMARK   29  A    between atoms: _71  and  _72
REMARK   30  A    between atoms: _71  and  _74
REMARK   31  A    between atoms: _74  and  _75
REMARK   32  A    between atoms: _85  and  _87
REMARK   33  A    between atoms: _87  and  _88
REMARK   34  A    between atoms: _87  and  _90
REMARK   35  A    between atoms: _90  and  _91
REMARK   36  A    between atoms: _91  and  _92
REMARK   37  A    between atoms: _92  and  _93
REMARK   38  A    between atoms: _93  and  _94
REMARK   39  A    between atoms: _98  and  _100
REMARK   40  A    between atoms: _100  and  _101
REMARK   41  A    between atoms: _100  and  _103
REMARK   42  A    between atoms: _103  and  _104
REMARK   43  A    between atoms: _104  and  _105
REMARK   44  A    between atoms: _110  and  _112
REMARK   45  A    between atoms: _112  and  _113
REMARK   46  A    between atoms: _112  and  _115
REMARK   47  A    between atoms: _115  and  _116
REMARK   48  A    between atoms: _118  and  _120
REMARK   49  A    between atoms: _120  and  _121
REMARK   50  A    between atoms: _120  and  _123
REMARK   51  A    between atoms: _123  and  _124
REMARK   52  A    between atoms: _129  and  _130
REMARK   53  A    between atoms: _132  and  _134
REMARK   54  A    between atoms: _134  and  _135
REMARK   55  A    between atoms: _134  and  _137
REMARK   56  A    between atoms: _137  and  _138
REMARK   57  A    between atoms: _143  and  _145
REMARK   58  A    between atoms: _145  and  _146
REMARK   59  A    between atoms: _145  and  _148
REMARK   60  A    between atoms: _148  and  _149
REMARK   61  A    between atoms: _152  and  _154
REMARK   62  A    between atoms: _154  and  _155
REMARK   63  A    between atoms: _154  and  _157
REMARK   64  A    between atoms: _157  and  _158
REMARK   65  A    between atoms: _158  and  _159
REMARK   66  A    between atoms: _159  and  _160
REMARK   67  A    between atoms: _169  and  _171
REMARK   68  A    between atoms: _171  and  _172
REMARK   69  A    between atoms: _171  and  _174
REMARK   70  A    between atoms: _174  and  _175
REMARK   71  A    between atoms: _180  and  _181
REMARK   72  A    between atoms: _183  and  _185
REMARK   73  A    between atoms: _185  and  _186
REMARK   74  A    between atoms: _185  and  _188
REMARK   75  A    between atoms: _188  and  _189
REMARK   76  A    between atoms: _195  and  _197
REMARK   77  A    between atoms: _197  and  _198
REMARK   78  A    between atoms: _197  and  _200
REMARK   79  A    between atoms: _200  and  _201
REMARK   80  A    between atoms: _204  and  _206
REMARK   81  A    between atoms: _206  and  _207
REMARK   82  A    between atoms: _206  and  _209
REMARK   83  A    between atoms: _209  and  _210
REMARK   84  A    between atoms: _210  and  _211
REMARK   85  A    between atoms: _211  and  _212
REMARK   86  A    between atoms: _221  and  _223
REMARK   87  A    between atoms: _223  and  _224
REMARK   88  A    between atoms: _223  and  _226
REMARK   89  A    between atoms: _226  and  _227
REMARK   90  A    between atoms: _232  and  _234
REMARK   91  A    between atoms: _234  and  _235
REMARK   92  A    between atoms: _234  and  _237
REMARK   93  A    between atoms: _237  and  _238
REMARK   94  A    between atoms: _243  and  _245
REMARK   95  A    between atoms: _245  and  _246
REMARK   96  A    between atoms: _245  and  _248
REMARK   97  A    between atoms: _248  and  _249
REMARK   98  A    between atoms: _252  and  _254
REMARK   99  A    between atoms: _254  and  _255
REMARK  100  A    between atoms: _254  and  _257
REMARK  101  A    between atoms: _257  and  _258
REMARK  102  A    between atoms: _258  and  _259
REMARK  103  A    between atoms: _262  and  _264
REMARK  104  A    between atoms: _264  and  _265
REMARK  105  A    between atoms: _264  and  _267
REMARK  106  A    between atoms: _267  and  _268
REMARK  107  A    between atoms: _271  and  _273
REMARK  108  A    between atoms: _273  and  _274
REMARK  109  A    between atoms: _273  and  _276
REMARK  110  A    between atoms: _276  and  _277
REMARK  111  A    between atoms: _282  and  _284
REMARK  112  A    between atoms: _284  and  _285
REMARK  113  A    between atoms: _284  and  _287
REMARK  114  A    between atoms: _287  and  _288
REMARK  115  A    between atoms: _291  and  _293
REMARK  116  A    between atoms: _293  and  _294
REMARK  117  A    between atoms: _296  and  _298
REMARK  118  A    between atoms: _298  and  _299
REMARK  119  A    between atoms: _298  and  _301
REMARK  120  A    between atoms: _301  and  _302
REMARK  121  A    between atoms: _307  and  _308
REMARK  122  A    between atoms: _310  and  _312
REMARK  123  A    between atoms: _312  and  _313
REMARK  124  A    between atoms: _312  and  _315
REMARK  125  A    between atoms: _315  and  _316
REMARK  126  A    between atoms: _321  and  _322
REMARK  127  A    between atoms: _324  and  _326
REMARK  128  A    between atoms: _326  and  _327
REMARK  129  A    between atoms: _326  and  _329
REMARK  130  A    between atoms: _329  and  _330
REMARK  131  A    between atoms: _330  and  _331
REMARK  132  A    between atoms: _334  and  _336
REMARK  133  A    between atoms: _336  and  _337
REMARK  134  A    between atoms: _336  and  _339
REMARK  135  A    between atoms: _339  and  _340
REMARK  136  A    between atoms: _340  and  _341
REMARK  137  A    between atoms: _341  and  _342
REMARK  138  A    between atoms: _351  and  _353
REMARK  139  A    between atoms: _353  and  _354
REMARK  140  A    between atoms: _353  and  _356
REMARK  141  A    between atoms: _356  and  _357
REMARK                            x       y       z     vdW  Elec       q    Type
REMARK                         _______ _______ _______ _____ _____    ______ ____
ROOT
ATOM      1  O   HOH     1      35.654   5.068   2.839  0.00  0.00    +0.000 OA
ENDROOT
TORSDOF 0
REMARK  Name = ../refined-set-2016/2r1y/2r1y_pocket.pdb
REMARK  141 active torsions:
REMARK  status: ('A' for Active; 'I' for Inactive)
REMARK    1  A    between atoms: _1  and  _3
REMARK    2  A    between atoms: _3  and  _4
REMARK    3  A    between atoms: _3  and  _6
REMARK    4  A    between atoms: _6  and  _7
REMARK    5  A    between atoms: _10  and  _12
REMARK    6  A    between atoms: _12  and  _13
REMARK    7  A    between atoms: _12  and  _15
REMARK    8  A    between atoms: _15  and  _16
REMARK    9  A    between atoms: _21  and  _23
REMARK   10  A    between atoms: _23  and  _24
REMARK   11  A    between atoms: _23  and  _26
REMARK   12  A    between atoms: _26  and  _27
REMARK   13  A    between atoms: _29  and  _31
REMARK   14  A    between atoms: _31  and  _32
REMARK   15  A    between atoms: _31  and  _34
REMARK   16  A    between atoms: _34  and  _35
REMARK   17  A    between atoms: _35  and  _36
REMARK   18  A    between atoms: _36  and  _37
REMARK   19  A    between atoms: _46  and  _48
REMARK   20  A    between atoms: _48  and  _49
REMARK   21  A    between atoms: _48  and  _51
REMARK   22  A    between atoms: _51  and  _52
REMARK   23  A    between atoms: _55  and  _57
REMARK   24  A    between atoms: _57  and  _58
REMARK   25  A    between atoms: _57  and  _60
REMARK   26  A    between atoms: _60  and  _61
REMARK   27  A    between atoms: _66  and  _67
REMARK   28  A    between atoms: _69  and  _71
REMARK   29  A    between atoms: _71  and  _72
REMARK   30  A    between atoms: _71  and  _74
REMARK   31  A    between atoms: _74  and  _75
REMARK   32  A    between atoms: _85  and  _87
REMARK   33  A    between atoms: _87  and  _88
REMARK   34  A    between atoms: _87  and  _90
REMARK   35  A    between atoms: _90  and  _91
REMARK   36  A    between atoms: _91  and  _92
REMARK   37  A    between atoms: _92  and  _93
REMARK   38  A    between atoms: _93  and  _94
REMARK   39  A    between atoms: _98  and  _100
REMARK   40  A    between atoms: _100  and  _101
REMARK   41  A    between atoms: _100  and  _103
REMARK   42  A    between atoms: _103  and  _104
REMARK   43  A    between atoms: _104  and  _105
REMARK   44  A    between atoms: _110  and  _112
REMARK   45  A    between atoms: _112  and  _113
REMARK   46  A    between atoms: _112  and  _115
REMARK   47  A    between atoms: _115  and  _116
REMARK   48  A    between atoms: _118  and  _120
REMARK   49  A    between atoms: _120  and  _121
REMARK   50  A    between atoms: _120  and  _123
REMARK   51  A    between atoms: _123  and  _124
REMARK   52  A    between atoms: _129  and  _130
REMARK   53  A    between atoms: _132  and  _134
REMARK   54  A    between atoms: _134  and  _135
REMARK   55  A    between atoms: _134  and  _137
REMARK   56  A    between atoms: _137  and  _138
REMARK   57  A    between atoms: _143  and  _145
REMARK   58  A    between atoms: _145  and  _146
REMARK   59  A    between atoms: _145  and  _148
REMARK   60  A    between atoms: _148  and  _149
REMARK   61  A    between atoms: _152  and  _154
REMARK   62  A    between atoms: _154  and  _155
REMARK   63  A    between atoms: _154  and  _157
REMARK   64  A    between atoms: _157  and  _158
REMARK   65  A    between atoms: _158  and  _159
REMARK   66  A    between atoms: _159  and  _160
REMARK   67  A    between atoms: _169  and  _171
REMARK   68  A    between atoms: _171  and  _172
REMARK   69  A    between atoms: _171  and  _174
REMARK   70  A    between atoms: _174  and  _175
REMARK   71  A    between atoms: _180  and  _181
REMARK   72  A    between atoms: _183  and  _185
REMARK   73  A    between atoms: _185  and  _186
REMARK   74  A    between atoms: _185  and  _188
REMARK   75  A    between atoms: _188  and  _189
REMARK   76  A    between atoms: _195  and  _197
REMARK   77  A    between atoms: _197  and  _198
REMARK   78  A    between atoms: _197  and  _200
REMARK   79  A    between atoms: _200  and  _201
REMARK   80  A    between atoms: _204  and  _206
REMARK   81  A    between atoms: _206  and  _207
REMARK   82  A    between atoms: _206  and  _209
REMARK   83  A    between atoms: _209  and  _210
REMARK   84  A    between atoms: _210  and  _211
REMARK   85  A    between atoms: _211  and  _212
REMARK   86  A    between atoms: _221  and  _223
REMARK   87  A    between atoms: _223  and  _224
REMARK   88  A    between atoms: _223  and  _226
REMARK   89  A    between atoms: _226  and  _227
REMARK   90  A    between atoms: _232  and  _234
REMARK   91  A    between atoms: _234  and  _235
REMARK   92  A    between atoms: _234  and  _237
REMARK   93  A    between atoms: _237  and  _238
REMARK   94  A    between atoms: _243  and  _245
REMARK   95  A    between atoms: _245  and  _246
REMARK   96  A    between atoms: _245  and  _248
REMARK   97  A    between atoms: _248  and  _249
REMARK   98  A    between atoms: _252  and  _254
REMARK   99  A    between atoms: _254  and  _255
REMARK  100  A    between atoms: _254  and  _257
REMARK  101  A    between atoms: _257  and  _258
REMARK  102  A    between atoms: _258  and  _259
REMARK  103  A    between atoms: _262  and  _264
REMARK  104  A    between atoms: _264  and  _265
REMARK  105  A    between atoms: _264  and  _267
REMARK  106  A    between atoms: _267  and  _268
REMARK  107  A    between atoms: _271  and  _273
REMARK  108  A    between atoms: _273  and  _274
REMARK  109  A    between atoms: _273  and  _276
REMARK  110  A    between atoms: _276  and  _277
REMARK  111  A    between atoms: _282  and  _284
REMARK  112  A    between atoms: _284  and  _285
REMARK  113  A    between atoms: _284  and  _287
REMARK  114  A    between atoms: _287  and  _288
REMARK  115  A    between atoms: _291  and  _293
REMARK  116  A    between atoms: _293  and  _294
REMARK  117  A    between atoms: _296  and  _298
REMARK  118  A    between atoms: _298  and  _299
REMARK  119  A    between atoms: _298  and  _301
REMARK  120  A    between atoms: _301  and  _302
REMARK  121  A    between atoms: _307  and  _308
REMARK  122  A    between atoms: _310  and  _312
REMARK  123  A    between atoms: _312  and  _313
REMARK  124  A    between atoms: _312  and  _315
REMARK  125  A    between atoms: _315  and  _316
REMARK  126  A    between atoms: _321  and  _322
REMARK  127  A    between atoms: _324  and  _326
REMARK  128  A    between atoms: _326  and  _327
REMARK  129  A    between atoms: _326  and  _329
REMARK  130  A    between atoms: _329  and  _330
REMARK  131  A    between atoms: _330  and  _331
REMARK  132  A    between atoms: _334  and  _336
REMARK  133  A    between atoms: _336  and  _337
REMARK  134  A    between atoms: _336  and  _339
REMARK  135  A    between atoms: _339  and  _340
REMARK  136  A    between atoms: _340  and  _341
REMARK  137  A    between atoms: _341  and  _342
REMARK  138  A    between atoms: _351  and  _353
REMARK  139  A    between atoms: _353  and  _354
REMARK  140  A    between atoms: _353  and  _356
REMARK  141  A    between atoms: _356  and  _357
REMARK                            x       y       z     vdW  Elec       q    Type
REMARK                         _______ _______ _______ _____ _____    ______ ____
ROOT
ATOM      1  O   HOH     1      21.741  -4.782   1.320  0.00  0.00    +0.000 OA
ENDROOT
TORSDOF 0
REMARK  Name = ../refined-set-2016/2r1y/2r1y_pocket.pdb
REMARK  141 active torsions:
REMARK  status: ('A' for Active; 'I' for Inactive)
REMARK    1  A    between atoms: _1  and  _3
REMARK    2  A    between atoms: _3  and  _4
REMARK    3  A    between atoms: _3  and  _6
REMARK    4  A    between atoms: _6  and  _7
REMARK    5  A    between atoms: _10  and  _12
REMARK    6  A    between atoms: _12  and  _13
REMARK    7  A    between atoms: _12  and  _15
REMARK    8  A    between atoms: _15  and  _16
REMARK    9  A    between atoms: _21  and  _23
REMARK   10  A    between atoms: _23  and  _24
REMARK   11  A    between atoms: _23  and  _26
REMARK   12  A    between atoms: _26  and  _27
REMARK   13  A    between atoms: _29  and  _31
REMARK   14  A    between atoms: _31  and  _32
REMARK   15  A    between atoms: _31  and  _34
REMARK   16  A    between atoms: _34  and  _35
REMARK   17  A    between atoms: _35  and  _36
REMARK   18  A    between atoms: _36  and  _37
REMARK   19  A    between atoms: _46  and  _48
REMARK   20  A    between atoms: _48  and  _49
REMARK   21  A    between atoms: _48  and  _51
REMARK   22  A    between atoms: _51  and  _52
REMARK   23  A    between atoms: _55  and  _57
REMARK   24  A    between atoms: _57  and  _58
REMARK   25  A    between atoms: _57  and  _60
REMARK   26  A    between atoms: _60  and  _61
REMARK   27  A    between atoms: _66  and  _67
REMARK   28  A    between atoms: _69  and  _71
REMARK   29  A    between atoms: _71  and  _72
REMARK   30  A    between atoms: _71  and  _74
REMARK   31  A    between atoms: _74  and  _75
REMARK   32  A    between atoms: _85  and  _87
REMARK   33  A    between atoms: _87  and  _88
REMARK   34  A    between atoms: _87  and  _90
REMARK   35  A    between atoms: _90  and  _91
REMARK   36  A    between atoms: _91  and  _92
REMARK   37  A    between atoms: _92  and  _93
REMARK   38  A    between atoms: _93  and  _94
REMARK   39  A    between atoms: _98  and  _100
REMARK   40  A    between atoms: _100  and  _101
REMARK   41  A    between atoms: _100  and  _103
REMARK   42  A    between atoms: _103  and  _104
REMARK   43  A    between atoms: _104  and  _105
REMARK   44  A    between atoms: _110  and  _112
REMARK   45  A    between atoms: _112  and  _113
REMARK   46  A    between atoms: _112  and  _115
REMARK   47  A    between atoms: _115  and  _116
REMARK   48  A    between atoms: _118  and  _120
REMARK   49  A    between atoms: _120  and  _121
REMARK   50  A    between atoms: _120  and  _123
REMARK   51  A    between atoms: _123  and  _124
REMARK   52  A    between atoms: _129  and  _130
REMARK   53  A    between atoms: _132  and  _134
REMARK   54  A    between atoms: _134  and  _135
REMARK   55  A    between atoms: _134  and  _137
REMARK   56  A    between atoms: _137  and  _138
REMARK   57  A    between atoms: _143  and  _145
REMARK   58  A    between atoms: _145  and  _146
REMARK   59  A    between atoms: _145  and  _148
REMARK   60  A    between atoms: _148  and  _149
REMARK   61  A    between atoms: _152  and  _154
REMARK   62  A    between atoms: _154  and  _155
REMARK   63  A    between atoms: _154  and  _157
REMARK   64  A    between atoms: _157  and  _158
REMARK   65  A    between atoms: _158  and  _159
REMARK   66  A    between atoms: _159  and  _160
REMARK   67  A    between atoms: _169  and  _171
REMARK   68  A    between atoms: _171  and  _172
REMARK   69  A    between atoms: _171  and  _174
REMARK   70  A    between atoms: _174  and  _175
REMARK   71  A    between atoms: _180  and  _181
REMARK   72  A    between atoms: _183  and  _185
REMARK   73  A    between atoms: _185  and  _186
REMARK   74  A    between atoms: _185  and  _188
REMARK   75  A    between atoms: _188  and  _189
REMARK   76  A    between atoms: _195  and  _197
REMARK   77  A    between atoms: _197  and  _198
REMARK   78  A    between atoms: _197  and  _200
REMARK   79  A    between atoms: _200  and  _201
REMARK   80  A    between atoms: _204  and  _206
REMARK   81  A    between atoms: _206  and  _207
REMARK   82  A    between atoms: _206  and  _209
REMARK   83  A    between atoms: _209  and  _210
REMARK   84  A    between atoms: _210  and  _211
REMARK   85  A    between atoms: _211  and  _212
REMARK   86  A    between atoms: _221  and  _223
REMARK   87  A    between atoms: _223  and  _224
REMARK   88  A    between atoms: _223  and  _226
REMARK   89  A    between atoms: _226  and  _227
REMARK   90  A    between atoms: _232  and  _234
REMARK   91  A    between atoms: _234  and  _235
REMARK   92  A    between atoms: _234  and  _237
REMARK   93  A    between atoms: _237  and  _238
REMARK   94  A    between atoms: _243  and  _245
REMARK   95  A    between atoms: _245  and  _246
REMARK   96  A    between atoms: _245  and  _248
REMARK   97  A    between atoms: _248  and  _249
REMARK   98  A    between atoms: _252  and  _254
REMARK   99  A    between atoms: _254  and  _255
REMARK  100  A    between atoms: _254  and  _257
REMARK  101  A    between atoms: _257  and  _258
REMARK  102  A    between atoms: _258  and  _259
REMARK  103  A    between atoms: _262  and  _264
REMARK  104  A    between atoms: _264  and  _265
REMARK  105  A    between atoms: _264  and  _267
REMARK  106  A    between atoms: _267  and  _268
REMARK  107  A    between atoms: _271  and  _273
REMARK  108  A    between atoms: _273  and  _274
REMARK  109  A    between atoms: _273  and  _276
REMARK  110  A    between atoms: _276  and  _277
REMARK  111  A    between atoms: _282  and  _284
REMARK  112  A    between atoms: _284  and  _285
REMARK  113  A    between atoms: _284  and  _287
REMARK  114  A    between atoms: _287  and  _288
REMARK  115  A    between atoms: _291  and  _293
REMARK  116  A    between atoms: _293  and  _294
REMARK  117  A    between atoms: _296  and  _298
REMARK  118  A    between atoms: _298  and  _299
REMARK  119  A    between atoms: _298  and  _301
REMARK  120  A    between atoms: _301  and  _302
REMARK  121  A    between atoms: _307  and  _308
REMARK  122  A    between atoms: _310  and  _312
REMARK  123  A    between atoms: _312  and  _313
REMARK  124  A    between atoms: _312  and  _315
REMARK  125  A    between atoms: _315  and  _316
REMARK  126  A    between atoms: _321  and  _322
REMARK  127  A    between atoms: _324  and  _326
REMARK  128  A    between atoms: _326  and  _327
REMARK  129  A    between atoms: _326  and  _329
REMARK  130  A    between atoms: _329  and  _330
REMARK  131  A    between atoms: _330  and  _331
REMARK  132  A    between atoms: _334  and  _336
REMARK  133  A    between atoms: _336  and  _337
REMARK  134  A    between atoms: _336  and  _339
REMARK  135  A    between atoms: _339  and  _340
REMARK  136  A    between atoms: _340  and  _341
REMARK  137  A    between atoms: _341  and  _342
REMARK  138  A    between atoms: _351  and  _353
REMARK  139  A    between atoms: _353  and  _354
REMARK  140  A    between atoms: _353  and  _356
REMARK  141  A    between atoms: _356  and  _357
REMARK                            x       y       z     vdW  Elec       q    Type
REMARK                         _______ _______ _______ _____ _____    ______ ____
ROOT
ATOM      1  O   HOH     1      26.113   4.909   3.879  0.00  0.00    +0.000 OA
ENDROOT
TORSDOF 0
