REMARK  Name = ../refined-set-2016/3l7d/3l7d_pocket.pdb
REMARK  251 active torsions:
REMARK  status: ('A' for Active; 'I' for Inactive)
REMARK    1  A    between atoms: _1  and  _3
REMARK    2  A    between atoms: _3  and  _4
REMARK    3  A    between atoms: _3  and  _6
REMARK    4  A    between atoms: _6  and  _7
REMARK    5  A    between atoms: _12  and  _13
REMARK    6  A    between atoms: _15  and  _17
REMARK    7  A    between atoms: _17  and  _18
REMARK    8  A    between atoms: _17  and  _20
REMARK    9  A    between atoms: _20  and  _21
REMARK   10  A    between atoms: _24  and  _26
REMARK   11  A    between atoms: _26  and  _27
REMARK   12  A    between atoms: _26  and  _29
REMARK   13  A    between atoms: _29  and  _30
REMARK   14  A    between atoms: _30  and  _31
REMARK   15  A    between atoms: _34  and  _36
REMARK   16  A    between atoms: _36  and  _37
REMARK   17  A    between atoms: _36  and  _39
REMARK   18  A    between atoms: _39  and  _40
REMARK   19  A    between atoms: _45  and  _47
REMARK   20  A    between atoms: _47  and  _48
REMARK   21  A    between atoms: _50  and  _52
REMARK   22  A    between atoms: _52  and  _53
REMARK   23  A    between atoms: _55  and  _57
REMARK   24  A    between atoms: _57  and  _58
REMARK   25  A    between atoms: _57  and  _60
REMARK   26  A    between atoms: _60  and  _61
REMARK   27  A    between atoms: _64  and  _66
REMARK   28  A    between atoms: _66  and  _67
REMARK   29  A    between atoms: _69  and  _71
REMARK   30  A    between atoms: _71  and  _72
REMARK   31  A    between atoms: _71  and  _74
REMARK   32  A    between atoms: _74  and  _75
REMARK   33  A    between atoms: _75  and  _76
REMARK   34  A    between atoms: _76  and  _77
REMARK   35  A    between atoms: _86  and  _88
REMARK   36  A    between atoms: _88  and  _89
REMARK   37  A    between atoms: _88  and  _91
REMARK   38  A    between atoms: _91  and  _92
REMARK   39  A    between atoms: _95  and  _97
REMARK   40  A    between atoms: _97  and  _98
REMARK   41  A    between atoms: _101  and  _103
REMARK   42  A    between atoms: _103  and  _104
REMARK   43  A    between atoms: _103  and  _106
REMARK   44  A    between atoms: _106  and  _107
REMARK   45  A    between atoms: _113  and  _115
REMARK   46  A    between atoms: _115  and  _116
REMARK   47  A    between atoms: _115  and  _118
REMARK   48  A    between atoms: _118  and  _119
REMARK   49  A    between atoms: _124  and  _125
REMARK   50  A    between atoms: _128  and  _129
REMARK   51  A    between atoms: _134  and  _136
REMARK   52  A    between atoms: _136  and  _137
REMARK   53  A    between atoms: _136  and  _139
REMARK   54  A    between atoms: _139  and  _140
REMARK   55  A    between atoms: _145  and  _147
REMARK   56  A    between atoms: _147  and  _148
REMARK   57  A    between atoms: _147  and  _150
REMARK   58  A    between atoms: _150  and  _151
REMARK   59  A    between atoms: _154  and  _156
REMARK   60  A    between atoms: _156  and  _157
REMARK   61  A    between atoms: _156  and  _159
REMARK   62  A    between atoms: _159  and  _160
REMARK   63  A    between atoms: _165  and  _167
REMARK   64  A    between atoms: _167  and  _168
REMARK   65  A    between atoms: _167  and  _170
REMARK   66  A    between atoms: _170  and  _171
REMARK   67  A    between atoms: _177  and  _179
REMARK   68  A    between atoms: _179  and  _180
REMARK   69  A    between atoms: _179  and  _182
REMARK   70  A    between atoms: _182  and  _183
REMARK   71  A    between atoms: _189  and  _191
REMARK   72  A    between atoms: _191  and  _192
REMARK   73  A    between atoms: _191  and  _194
REMARK   74  A    between atoms: _194  and  _195
REMARK   75  A    between atoms: _195  and  _196
REMARK   76  A    between atoms: _199  and  _201
REMARK   77  A    between atoms: _201  and  _202
REMARK   78  A    between atoms: _201  and  _204
REMARK   79  A    between atoms: _204  and  _205
REMARK   80  A    between atoms: _205  and  _206
REMARK   81  A    between atoms: _206  and  _207
REMARK   82  A    between atoms: _216  and  _218
REMARK   83  A    between atoms: _218  and  _219
REMARK   84  A    between atoms: _218  and  _221
REMARK   85  A    between atoms: _221  and  _222
REMARK   86  A    between atoms: _222  and  _223
REMARK   87  A    between atoms: _226  and  _228
REMARK   88  A    between atoms: _228  and  _229
REMARK   89  A    between atoms: _228  and  _231
REMARK   90  A    between atoms: _231  and  _232
REMARK   91  A    between atoms: _237  and  _239
REMARK   92  A    between atoms: _239  and  _240
REMARK   93  A    between atoms: _239  and  _242
REMARK   94  A    between atoms: _242  and  _243
REMARK   95  A    between atoms: _246  and  _248
REMARK   96  A    between atoms: _248  and  _249
REMARK   97  A    between atoms: _248  and  _251
REMARK   98  A    between atoms: _251  and  _252
REMARK   99  A    between atoms: _255  and  _257
REMARK  100  A    between atoms: _257  and  _258
REMARK  101  A    between atoms: _257  and  _260
REMARK  102  A    between atoms: _260  and  _261
REMARK  103  A    between atoms: _266  and  _268
REMARK  104  A    between atoms: _268  and  _269
REMARK  105  A    between atoms: _268  and  _271
REMARK  106  A    between atoms: _271  and  _272
REMARK  107  A    between atoms: _275  and  _277
REMARK  108  A    between atoms: _277  and  _278
REMARK  109  A    between atoms: _277  and  _280
REMARK  110  A    between atoms: _280  and  _281
REMARK  111  A    between atoms: _286  and  _288
REMARK  112  A    between atoms: _288  and  _289
REMARK  113  A    between atoms: _288  and  _291
REMARK  114  A    between atoms: _291  and  _292
REMARK  115  A    between atoms: _297  and  _299
REMARK  116  A    between atoms: _299  and  _300
REMARK  117  A    between atoms: _299  and  _302
REMARK  118  A    between atoms: _302  and  _303
REMARK  119  A    between atoms: _306  and  _308
REMARK  120  A    between atoms: _308  and  _309
REMARK  121  A    between atoms: _308  and  _311
REMARK  122  A    between atoms: _314  and  _316
REMARK  123  A    between atoms: _316  and  _317
REMARK  124  A    between atoms: _316  and  _319
REMARK  125  A    between atoms: _319  and  _320
REMARK  126  A    between atoms: _323  and  _325
REMARK  127  A    between atoms: _325  and  _326
REMARK  128  A    between atoms: _325  and  _328
REMARK  129  A    between atoms: _328  and  _329
REMARK  130  A    between atoms: _329  and  _330
REMARK  131  A    between atoms: _333  and  _335
REMARK  132  A    between atoms: _335  and  _336
REMARK  133  A    between atoms: _339  and  _341
REMARK  134  A    between atoms: _341  and  _342
REMARK  135  A    between atoms: _341  and  _344
REMARK  136  A    between atoms: _344  and  _345
REMARK  137  A    between atoms: _348  and  _350
REMARK  138  A    between atoms: _350  and  _351
REMARK  139  A    between atoms: _350  and  _353
REMARK  140  A    between atoms: _353  and  _354
REMARK  141  A    between atoms: _354  and  _355
REMARK  142  A    between atoms: _358  and  _360
REMARK  143  A    between atoms: _360  and  _361
REMARK  144  A    between atoms: _360  and  _363
REMARK  145  A    between atoms: _363  and  _364
REMARK  146  A    between atoms: _369  and  _371
REMARK  147  A    between atoms: _371  and  _372
REMARK  148  A    between atoms: _374  and  _376
REMARK  149  A    between atoms: _376  and  _377
REMARK  150  A    between atoms: _376  and  _379
REMARK  151  A    between atoms: _382  and  _384
REMARK  152  A    between atoms: _384  and  _385
REMARK  153  A    between atoms: _388  and  _390
REMARK  154  A    between atoms: _390  and  _391
REMARK  155  A    between atoms: _390  and  _393
REMARK  156  A    between atoms: _393  and  _394
REMARK  157  A    between atoms: _399  and  _401
REMARK  158  A    between atoms: _401  and  _402
REMARK  159  A    between atoms: _401  and  _404
REMARK  160  A    between atoms: _404  and  _405
REMARK  161  A    between atoms: _405  and  _406
REMARK  162  A    between atoms: _406  and  _407
REMARK  163  A    between atoms: _407  and  _408
REMARK  164  A    between atoms: _412  and  _414
REMARK  165  A    between atoms: _414  and  _415
REMARK  166  A    between atoms: _414  and  _417
REMARK  167  A    between atoms: _417  and  _418
REMARK  168  A    between atoms: _423  and  _425
REMARK  169  A    between atoms: _425  and  _426
REMARK  170  A    between atoms: _428  and  _430
REMARK  171  A    between atoms: _430  and  _431
REMARK  172  A    between atoms: _430  and  _433
REMARK  173  A    between atoms: _433  and  _434
REMARK  174  A    between atoms: _434  and  _435
REMARK  175  A    between atoms: _435  and  _436
REMARK  176  A    between atoms: _436  and  _437
REMARK  177  A    between atoms: _441  and  _443
REMARK  178  A    between atoms: _443  and  _444
REMARK  179  A    between atoms: _443  and  _446
REMARK  180  A    between atoms: _446  and  _447
REMARK  181  A    between atoms: _447  and  _448
REMARK  182  A    between atoms: _448  and  _449
REMARK  183  A    between atoms: _458  and  _460
REMARK  184  A    between atoms: _460  and  _461
REMARK  185  A    between atoms: _460  and  _463
REMARK  186  A    between atoms: _463  and  _464
REMARK  187  A    between atoms: _469  and  _470
REMARK  188  A    between atoms: _472  and  _474
REMARK  189  A    between atoms: _474  and  _475
REMARK  190  A    between atoms: _474  and  _477
REMARK  191  A    between atoms: _477  and  _478
REMARK  192  A    between atoms: _478  and  _479
REMARK  193  A    between atoms: _479  and  _480
REMARK  194  A    between atoms: _480  and  _481
REMARK  195  A    between atoms: _485  and  _487
REMARK  196  A    between atoms: _487  and  _488
REMARK  197  A    between atoms: _487  and  _490
REMARK  198  A    between atoms: _490  and  _491
REMARK  199  A    between atoms: _494  and  _496
REMARK  200  A    between atoms: _496  and  _497
REMARK  201  A    between atoms: _496  and  _499
REMARK  202  A    between atoms: _499  and  _500
REMARK  203  A    between atoms: _500  and  _501
REMARK  204  A    between atoms: _504  and  _506
REMARK  205  A    between atoms: _506  and  _507
REMARK  206  A    between atoms: _510  and  _512
REMARK  207  A    between atoms: _512  and  _513
REMARK  208  A    between atoms: _512  and  _515
REMARK  209  A    between atoms: _515  and  _516
REMARK  210  A    between atoms: _518  and  _520
REMARK  211  A    between atoms: _520  and  _521
REMARK  212  A    between atoms: _523  and  _525
REMARK  213  A    between atoms: _525  and  _526
REMARK  214  A    between atoms: _525  and  _528
REMARK  215  A    between atoms: _528  and  _529
REMARK  216  A    between atoms: _532  and  _534
REMARK  217  A    between atoms: _534  and  _535
REMARK  218  A    between atoms: _537  and  _539
REMARK  219  A    between atoms: _539  and  _540
REMARK  220  A    between atoms: _539  and  _542
REMARK  221  A    between atoms: _542  and  _543
REMARK  222  A    between atoms: _548  and  _550
REMARK  223  A    between atoms: _550  and  _551
REMARK  224  A    between atoms: _550  and  _553
REMARK  225  A    between atoms: _553  and  _554
REMARK  226  A    between atoms: _554  and  _555
REMARK  227  A    between atoms: _562  and  _563
REMARK  228  A    between atoms: _563  and  _579
REMARK  229  A    between atoms: _564  and  _566
REMARK  230  A    between atoms: _566  and  _567
REMARK  231  A    between atoms: _567  and  _568
REMARK  232  A    between atoms: _572  and  _574
REMARK  233  A    between atoms: _574  and  _575
REMARK  234  A    between atoms: _574  and  _582
REMARK  235  A    between atoms: _575  and  _576
REMARK  236  A    between atoms: _576  and  _577
REMARK  237  A    between atoms: _577  and  _578
REMARK  238  A    between atoms: _578  and  _579
REMARK  239  A    between atoms: _584  and  _586
REMARK  240  A    between atoms: _586  and  _587
REMARK  241  A    between atoms: _586  and  _589
REMARK  242  A    between atoms: _589  and  _590
REMARK  243  A    between atoms: _593  and  _595
REMARK  244  A    between atoms: _595  and  _596
REMARK  245  A    between atoms: _598  and  _600
REMARK  246  A    between atoms: _600  and  _601
REMARK  247  A    between atoms: _604  and  _606
REMARK  248  A    between atoms: _606  and  _607
REMARK  249  A    between atoms: _606  and  _609
REMARK  250  A    between atoms: _609  and  _610
REMARK  251  A    between atoms: _615  and  _616
REMARK                            x       y       z     vdW  Elec       q    Type
REMARK                         _______ _______ _______ _____ _____    ______ ____
ROOT
ATOM      1  CG  TYR A   1      33.562  11.374  36.665  0.00  0.00    -0.020 A 
ATOM      2  CD2 TYR A   1      33.126  12.700  36.778  0.00  0.00    -0.001 A 
ATOM      3  CE2 TYR A   1      33.163  13.561  35.690  0.00  0.00    +0.036 A 
ATOM      4  CZ  TYR A   1      33.634  13.103  34.482  0.00  0.00    +0.134 A 
ATOM      5  CE1 TYR A   1      34.057  11.797  34.338  0.00  0.00    +0.036 A 
ATOM      6  CD1 TYR A   1      34.016  10.939  35.427  0.00  0.00    -0.001 A 
ENDROOT
BRANCH   4   7
ATOM      7  OH  TYR A   1      33.673  13.931  33.384  0.00  0.00    -0.506 OA
ATOM      8  HH  TYR A   1      34.039  13.434  32.610  0.00  0.00    +0.292 HD
ENDBRANCH   4   7
BRANCH   1   9
ATOM      9  CB  TYR A   1      33.535  10.435  37.848  0.00  0.00    +0.051 C 
BRANCH   9  10
ATOM     10  CA  TYR A   1      34.860  10.365  38.615  0.00  0.00    +0.137 C 
BRANCH  10  11
ATOM     11  N   TYR A   1      34.880   9.219  39.514  0.00  0.00    -0.239 NA
ATOM     12  H   TYR A   1      34.024   8.990  40.058  0.00  0.00    +0.142 HD
ENDBRANCH  10  11
BRANCH  10  13
ATOM     13  C   TYR A   1      35.098  11.643  39.426  0.00  0.00    +0.224 C 
ATOM     14  O   TYR A   1      34.207  12.106  40.140  0.00  0.00    -0.287 OA
ENDBRANCH  10  13
ENDBRANCH   9  10
ENDBRANCH   1   9
TORSDOF 5
REMARK  Name = ../refined-set-2016/3l7d/3l7d_pocket.pdb
REMARK  251 active torsions:
REMARK  status: ('A' for Active; 'I' for Inactive)
REMARK    1  A    between atoms: _1  and  _3
REMARK    2  A    between atoms: _3  and  _4
REMARK    3  A    between atoms: _3  and  _6
REMARK    4  A    between atoms: _6  and  _7
REMARK    5  A    between atoms: _12  and  _13
REMARK    6  A    between atoms: _15  and  _17
REMARK    7  A    between atoms: _17  and  _18
REMARK    8  A    between atoms: _17  and  _20
REMARK    9  A    between atoms: _20  and  _21
REMARK   10  A    between atoms: _24  and  _26
REMARK   11  A    between atoms: _26  and  _27
REMARK   12  A    between atoms: _26  and  _29
REMARK   13  A    between atoms: _29  and  _30
REMARK   14  A    between atoms: _30  and  _31
REMARK   15  A    between atoms: _34  and  _36
REMARK   16  A    between atoms: _36  and  _37
REMARK   17  A    between atoms: _36  and  _39
REMARK   18  A    between atoms: _39  and  _40
REMARK   19  A    between atoms: _45  and  _47
REMARK   20  A    between atoms: _47  and  _48
REMARK   21  A    between atoms: _50  and  _52
REMARK   22  A    between atoms: _52  and  _53
REMARK   23  A    between atoms: _55  and  _57
REMARK   24  A    between atoms: _57  and  _58
REMARK   25  A    between atoms: _57  and  _60
REMARK   26  A    between atoms: _60  and  _61
REMARK   27  A    between atoms: _64  and  _66
REMARK   28  A    between atoms: _66  and  _67
REMARK   29  A    between atoms: _69  and  _71
REMARK   30  A    between atoms: _71  and  _72
REMARK   31  A    between atoms: _71  and  _74
REMARK   32  A    between atoms: _74  and  _75
REMARK   33  A    between atoms: _75  and  _76
REMARK   34  A    between atoms: _76  and  _77
REMARK   35  A    between atoms: _86  and  _88
REMARK   36  A    between atoms: _88  and  _89
REMARK   37  A    between atoms: _88  and  _91
REMARK   38  A    between atoms: _91  and  _92
REMARK   39  A    between atoms: _95  and  _97
REMARK   40  A    between atoms: _97  and  _98
REMARK   41  A    between atoms: _101  and  _103
REMARK   42  A    between atoms: _103  and  _104
REMARK   43  A    between atoms: _103  and  _106
REMARK   44  A    between atoms: _106  and  _107
REMARK   45  A    between atoms: _113  and  _115
REMARK   46  A    between atoms: _115  and  _116
REMARK   47  A    between atoms: _115  and  _118
REMARK   48  A    between atoms: _118  and  _119
REMARK   49  A    between atoms: _124  and  _125
REMARK   50  A    between atoms: _128  and  _129
REMARK   51  A    between atoms: _134  and  _136
REMARK   52  A    between atoms: _136  and  _137
REMARK   53  A    between atoms: _136  and  _139
REMARK   54  A    between atoms: _139  and  _140
REMARK   55  A    between atoms: _145  and  _147
REMARK   56  A    between atoms: _147  and  _148
REMARK   57  A    between atoms: _147  and  _150
REMARK   58  A    between atoms: _150  and  _151
REMARK   59  A    between atoms: _154  and  _156
REMARK   60  A    between atoms: _156  and  _157
REMARK   61  A    between atoms: _156  and  _159
REMARK   62  A    between atoms: _159  and  _160
REMARK   63  A    between atoms: _165  and  _167
REMARK   64  A    between atoms: _167  and  _168
REMARK   65  A    between atoms: _167  and  _170
REMARK   66  A    between atoms: _170  and  _171
REMARK   67  A    between atoms: _177  and  _179
REMARK   68  A    between atoms: _179  and  _180
REMARK   69  A    between atoms: _179  and  _182
REMARK   70  A    between atoms: _182  and  _183
REMARK   71  A    between atoms: _189  and  _191
REMARK   72  A    between atoms: _191  and  _192
REMARK   73  A    between atoms: _191  and  _194
REMARK   74  A    between atoms: _194  and  _195
REMARK   75  A    between atoms: _195  and  _196
REMARK   76  A    between atoms: _199  and  _201
REMARK   77  A    between atoms: _201  and  _202
REMARK   78  A    between atoms: _201  and  _204
REMARK   79  A    between atoms: _204  and  _205
REMARK   80  A    between atoms: _205  and  _206
REMARK   81  A    between atoms: _206  and  _207
REMARK   82  A    between atoms: _216  and  _218
REMARK   83  A    between atoms: _218  and  _219
REMARK   84  A    between atoms: _218  and  _221
REMARK   85  A    between atoms: _221  and  _222
REMARK   86  A    between atoms: _222  and  _223
REMARK   87  A    between atoms: _226  and  _228
REMARK   88  A    between atoms: _228  and  _229
REMARK   89  A    between atoms: _228  and  _231
REMARK   90  A    between atoms: _231  and  _232
REMARK   91  A    between atoms: _237  and  _239
REMARK   92  A    between atoms: _239  and  _240
REMARK   93  A    between atoms: _239  and  _242
REMARK   94  A    between atoms: _242  and  _243
REMARK   95  A    between atoms: _246  and  _248
REMARK   96  A    between atoms: _248  and  _249
REMARK   97  A    between atoms: _248  and  _251
REMARK   98  A    between atoms: _251  and  _252
REMARK   99  A    between atoms: _255  and  _257
REMARK  100  A    between atoms: _257  and  _258
REMARK  101  A    between atoms: _257  and  _260
REMARK  102  A    between atoms: _260  and  _261
REMARK  103  A    between atoms: _266  and  _268
REMARK  104  A    between atoms: _268  and  _269
REMARK  105  A    between atoms: _268  and  _271
REMARK  106  A    between atoms: _271  and  _272
REMARK  107  A    between atoms: _275  and  _277
REMARK  108  A    between atoms: _277  and  _278
REMARK  109  A    between atoms: _277  and  _280
REMARK  110  A    between atoms: _280  and  _281
REMARK  111  A    between atoms: _286  and  _288
REMARK  112  A    between atoms: _288  and  _289
REMARK  113  A    between atoms: _288  and  _291
REMARK  114  A    between atoms: _291  and  _292
REMARK  115  A    between atoms: _297  and  _299
REMARK  116  A    between atoms: _299  and  _300
REMARK  117  A    between atoms: _299  and  _302
REMARK  118  A    between atoms: _302  and  _303
REMARK  119  A    between atoms: _306  and  _308
REMARK  120  A    between atoms: _308  and  _309
REMARK  121  A    between atoms: _308  and  _311
REMARK  122  A    between atoms: _314  and  _316
REMARK  123  A    between atoms: _316  and  _317
REMARK  124  A    between atoms: _316  and  _319
REMARK  125  A    between atoms: _319  and  _320
REMARK  126  A    between atoms: _323  and  _325
REMARK  127  A    between atoms: _325  and  _326
REMARK  128  A    between atoms: _325  and  _328
REMARK  129  A    between atoms: _328  and  _329
REMARK  130  A    between atoms: _329  and  _330
REMARK  131  A    between atoms: _333  and  _335
REMARK  132  A    between atoms: _335  and  _336
REMARK  133  A    between atoms: _339  and  _341
REMARK  134  A    between atoms: _341  and  _342
REMARK  135  A    between atoms: _341  and  _344
REMARK  136  A    between atoms: _344  and  _345
REMARK  137  A    between atoms: _348  and  _350
REMARK  138  A    between atoms: _350  and  _351
REMARK  139  A    between atoms: _350  and  _353
REMARK  140  A    between atoms: _353  and  _354
REMARK  141  A    between atoms: _354  and  _355
REMARK  142  A    between atoms: _358  and  _360
REMARK  143  A    between atoms: _360  and  _361
REMARK  144  A    between atoms: _360  and  _363
REMARK  145  A    between atoms: _363  and  _364
REMARK  146  A    between atoms: _369  and  _371
REMARK  147  A    between atoms: _371  and  _372
REMARK  148  A    between atoms: _374  and  _376
REMARK  149  A    between atoms: _376  and  _377
REMARK  150  A    between atoms: _376  and  _379
REMARK  151  A    between atoms: _382  and  _384
REMARK  152  A    between atoms: _384  and  _385
REMARK  153  A    between atoms: _388  and  _390
REMARK  154  A    between atoms: _390  and  _391
REMARK  155  A    between atoms: _390  and  _393
REMARK  156  A    between atoms: _393  and  _394
REMARK  157  A    between atoms: _399  and  _401
REMARK  158  A    between atoms: _401  and  _402
REMARK  159  A    between atoms: _401  and  _404
REMARK  160  A    between atoms: _404  and  _405
REMARK  161  A    between atoms: _405  and  _406
REMARK  162  A    between atoms: _406  and  _407
REMARK  163  A    between atoms: _407  and  _408
REMARK  164  A    between atoms: _412  and  _414
REMARK  165  A    between atoms: _414  and  _415
REMARK  166  A    between atoms: _414  and  _417
REMARK  167  A    between atoms: _417  and  _418
REMARK  168  A    between atoms: _423  and  _425
REMARK  169  A    between atoms: _425  and  _426
REMARK  170  A    between atoms: _428  and  _430
REMARK  171  A    between atoms: _430  and  _431
REMARK  172  A    between atoms: _430  and  _433
REMARK  173  A    between atoms: _433  and  _434
REMARK  174  A    between atoms: _434  and  _435
REMARK  175  A    between atoms: _435  and  _436
REMARK  176  A    between atoms: _436  and  _437
REMARK  177  A    between atoms: _441  and  _443
REMARK  178  A    between atoms: _443  and  _444
REMARK  179  A    between atoms: _443  and  _446
REMARK  180  A    between atoms: _446  and  _447
REMARK  181  A    between atoms: _447  and  _448
REMARK  182  A    between atoms: _448  and  _449
REMARK  183  A    between atoms: _458  and  _460
REMARK  184  A    between atoms: _460  and  _461
REMARK  185  A    between atoms: _460  and  _463
REMARK  186  A    between atoms: _463  and  _464
REMARK  187  A    between atoms: _469  and  _470
REMARK  188  A    between atoms: _472  and  _474
REMARK  189  A    between atoms: _474  and  _475
REMARK  190  A    between atoms: _474  and  _477
REMARK  191  A    between atoms: _477  and  _478
REMARK  192  A    between atoms: _478  and  _479
REMARK  193  A    between atoms: _479  and  _480
REMARK  194  A    between atoms: _480  and  _481
REMARK  195  A    between atoms: _485  and  _487
REMARK  196  A    between atoms: _487  and  _488
REMARK  197  A    between atoms: _487  and  _490
REMARK  198  A    between atoms: _490  and  _491
REMARK  199  A    between atoms: _494  and  _496
REMARK  200  A    between atoms: _496  and  _497
REMARK  201  A    between atoms: _496  and  _499
REMARK  202  A    between atoms: _499  and  _500
REMARK  203  A    between atoms: _500  and  _501
REMARK  204  A    between atoms: _504  and  _506
REMARK  205  A    between atoms: _506  and  _507
REMARK  206  A    between atoms: _510  and  _512
REMARK  207  A    between atoms: _512  and  _513
REMARK  208  A    between atoms: _512  and  _515
REMARK  209  A    between atoms: _515  and  _516
REMARK  210  A    between atoms: _518  and  _520
REMARK  211  A    between atoms: _520  and  _521
REMARK  212  A    between atoms: _523  and  _525
REMARK  213  A    between atoms: _525  and  _526
REMARK  214  A    between atoms: _525  and  _528
REMARK  215  A    between atoms: _528  and  _529
REMARK  216  A    between atoms: _532  and  _534
REMARK  217  A    between atoms: _534  and  _535
REMARK  218  A    between atoms: _537  and  _539
REMARK  219  A    between atoms: _539  and  _540
REMARK  220  A    between atoms: _539  and  _542
REMARK  221  A    between atoms: _542  and  _543
REMARK  222  A    between atoms: _548  and  _550
REMARK  223  A    between atoms: _550  and  _551
REMARK  224  A    between atoms: _550  and  _553
REMARK  225  A    between atoms: _553  and  _554
REMARK  226  A    between atoms: _554  and  _555
REMARK  227  A    between atoms: _562  and  _563
REMARK  228  A    between atoms: _563  and  _579
REMARK  229  A    between atoms: _564  and  _566
REMARK  230  A    between atoms: _566  and  _567
REMARK  231  A    between atoms: _567  and  _568
REMARK  232  A    between atoms: _572  and  _574
REMARK  233  A    between atoms: _574  and  _575
REMARK  234  A    between atoms: _574  and  _582
REMARK  235  A    between atoms: _575  and  _576
REMARK  236  A    between atoms: _576  and  _577
REMARK  237  A    between atoms: _577  and  _578
REMARK  238  A    between atoms: _578  and  _579
REMARK  239  A    between atoms: _584  and  _586
REMARK  240  A    between atoms: _586  and  _587
REMARK  241  A    between atoms: _586  and  _589
REMARK  242  A    between atoms: _589  and  _590
REMARK  243  A    between atoms: _593  and  _595
REMARK  244  A    between atoms: _595  and  _596
REMARK  245  A    between atoms: _598  and  _600
REMARK  246  A    between atoms: _600  and  _601
REMARK  247  A    between atoms: _604  and  _606
REMARK  248  A    between atoms: _606  and  _607
REMARK  249  A    between atoms: _606  and  _609
REMARK  250  A    between atoms: _609  and  _610
REMARK  251  A    between atoms: _615  and  _616
REMARK                            x       y       z     vdW  Elec       q    Type
REMARK                         _______ _______ _______ _____ _____    ______ ____
ROOT
ATOM      1  C   LEU A   1      33.898  20.907  40.521  0.00  0.00    +0.238 C 
ATOM      2  O   LEU A   1      33.518  21.866  41.186  0.00  0.00    -0.274 OA
ATOM      3  N   GLU A   2      33.174  20.351  39.549  0.00  0.00    -0.298 N 
ATOM      4  H   GLU A   2      33.553  19.518  39.055  0.00  0.00    +0.150 HD
ENDROOT
BRANCH   1   5
ATOM      5  CA  LEU A   1      35.261  20.278  40.795  0.00  0.00    +0.145 C 
BRANCH   5   6
ATOM      6  N   LEU A   1      35.522  19.121  39.945  0.00  0.00    -0.238 NA
ATOM      7  H   LEU A   1      36.029  19.247  39.046  0.00  0.00    +0.142 HD
ENDBRANCH   5   6
BRANCH   5   8
ATOM      8  CB  LEU A   1      36.374  21.333  40.686  0.00  0.00    +0.026 C 
BRANCH   8   9
ATOM      9  CG  LEU A   1      37.293  21.031  41.880  0.00  0.00    +0.002 C 
ATOM     10  CD2 LEU A   1      37.801  22.224  42.573  0.00  0.00    +0.000 C 
ATOM     11  CD1 LEU A   1      38.418  20.076  41.473  0.00  0.00    +0.000 C 
ENDBRANCH   8   9
ENDBRANCH   5   8
ENDBRANCH   1   5
BRANCH   3  12
ATOM     12  CA  GLU A   2      31.864  20.872  39.152  0.00  0.00    +0.137 C 
BRANCH  12  13
ATOM     13  C   GLU A   2      30.894  19.729  38.872  0.00  0.00    +0.227 C 
ATOM     14  O   GLU A   2      31.242  18.790  38.156  0.00  0.00    -0.286 OA
ENDBRANCH  12  13
BRANCH  12  15
ATOM     15  CB  GLU A   2      31.982  21.760  37.899  0.00  0.00    +0.039 C 
BRANCH  15  16
ATOM     16  CG  GLU A   2      32.839  23.022  38.094  0.00  0.00    +0.116 C 
BRANCH  16  17
ATOM     17  CD  GLU A   2      32.788  23.941  36.899  0.00  0.00    +0.365 C 
ATOM     18  OE2 GLU A   2      33.770  24.669  36.685  0.00  0.00    -0.246 OA
ATOM     19  OE1 GLU A   2      31.773  23.934  36.156  0.00  0.00    -0.246 OA
ENDBRANCH  16  17
ENDBRANCH  15  16
ENDBRANCH  12  15
ENDBRANCH   3  12
TORSDOF 9
REMARK  Name = ../refined-set-2016/3l7d/3l7d_pocket.pdb
REMARK  251 active torsions:
REMARK  status: ('A' for Active; 'I' for Inactive)
REMARK    1  A    between atoms: _1  and  _3
REMARK    2  A    between atoms: _3  and  _4
REMARK    3  A    between atoms: _3  and  _6
REMARK    4  A    between atoms: _6  and  _7
REMARK    5  A    between atoms: _12  and  _13
REMARK    6  A    between atoms: _15  and  _17
REMARK    7  A    between atoms: _17  and  _18
REMARK    8  A    between atoms: _17  and  _20
REMARK    9  A    between atoms: _20  and  _21
REMARK   10  A    between atoms: _24  and  _26
REMARK   11  A    between atoms: _26  and  _27
REMARK   12  A    between atoms: _26  and  _29
REMARK   13  A    between atoms: _29  and  _30
REMARK   14  A    between atoms: _30  and  _31
REMARK   15  A    between atoms: _34  and  _36
REMARK   16  A    between atoms: _36  and  _37
REMARK   17  A    between atoms: _36  and  _39
REMARK   18  A    between atoms: _39  and  _40
REMARK   19  A    between atoms: _45  and  _47
REMARK   20  A    between atoms: _47  and  _48
REMARK   21  A    between atoms: _50  and  _52
REMARK   22  A    between atoms: _52  and  _53
REMARK   23  A    between atoms: _55  and  _57
REMARK   24  A    between atoms: _57  and  _58
REMARK   25  A    between atoms: _57  and  _60
REMARK   26  A    between atoms: _60  and  _61
REMARK   27  A    between atoms: _64  and  _66
REMARK   28  A    between atoms: _66  and  _67
REMARK   29  A    between atoms: _69  and  _71
REMARK   30  A    between atoms: _71  and  _72
REMARK   31  A    between atoms: _71  and  _74
REMARK   32  A    between atoms: _74  and  _75
REMARK   33  A    between atoms: _75  and  _76
REMARK   34  A    between atoms: _76  and  _77
REMARK   35  A    between atoms: _86  and  _88
REMARK   36  A    between atoms: _88  and  _89
REMARK   37  A    between atoms: _88  and  _91
REMARK   38  A    between atoms: _91  and  _92
REMARK   39  A    between atoms: _95  and  _97
REMARK   40  A    between atoms: _97  and  _98
REMARK   41  A    between atoms: _101  and  _103
REMARK   42  A    between atoms: _103  and  _104
REMARK   43  A    between atoms: _103  and  _106
REMARK   44  A    between atoms: _106  and  _107
REMARK   45  A    between atoms: _113  and  _115
REMARK   46  A    between atoms: _115  and  _116
REMARK   47  A    between atoms: _115  and  _118
REMARK   48  A    between atoms: _118  and  _119
REMARK   49  A    between atoms: _124  and  _125
REMARK   50  A    between atoms: _128  and  _129
REMARK   51  A    between atoms: _134  and  _136
REMARK   52  A    between atoms: _136  and  _137
REMARK   53  A    between atoms: _136  and  _139
REMARK   54  A    between atoms: _139  and  _140
REMARK   55  A    between atoms: _145  and  _147
REMARK   56  A    between atoms: _147  and  _148
REMARK   57  A    between atoms: _147  and  _150
REMARK   58  A    between atoms: _150  and  _151
REMARK   59  A    between atoms: _154  and  _156
REMARK   60  A    between atoms: _156  and  _157
REMARK   61  A    between atoms: _156  and  _159
REMARK   62  A    between atoms: _159  and  _160
REMARK   63  A    between atoms: _165  and  _167
REMARK   64  A    between atoms: _167  and  _168
REMARK   65  A    between atoms: _167  and  _170
REMARK   66  A    between atoms: _170  and  _171
REMARK   67  A    between atoms: _177  and  _179
REMARK   68  A    between atoms: _179  and  _180
REMARK   69  A    between atoms: _179  and  _182
REMARK   70  A    between atoms: _182  and  _183
REMARK   71  A    between atoms: _189  and  _191
REMARK   72  A    between atoms: _191  and  _192
REMARK   73  A    between atoms: _191  and  _194
REMARK   74  A    between atoms: _194  and  _195
REMARK   75  A    between atoms: _195  and  _196
REMARK   76  A    between atoms: _199  and  _201
REMARK   77  A    between atoms: _201  and  _202
REMARK   78  A    between atoms: _201  and  _204
REMARK   79  A    between atoms: _204  and  _205
REMARK   80  A    between atoms: _205  and  _206
REMARK   81  A    between atoms: _206  and  _207
REMARK   82  A    between atoms: _216  and  _218
REMARK   83  A    between atoms: _218  and  _219
REMARK   84  A    between atoms: _218  and  _221
REMARK   85  A    between atoms: _221  and  _222
REMARK   86  A    between atoms: _222  and  _223
REMARK   87  A    between atoms: _226  and  _228
REMARK   88  A    between atoms: _228  and  _229
REMARK   89  A    between atoms: _228  and  _231
REMARK   90  A    between atoms: _231  and  _232
REMARK   91  A    between atoms: _237  and  _239
REMARK   92  A    between atoms: _239  and  _240
REMARK   93  A    between atoms: _239  and  _242
REMARK   94  A    between atoms: _242  and  _243
REMARK   95  A    between atoms: _246  and  _248
REMARK   96  A    between atoms: _248  and  _249
REMARK   97  A    between atoms: _248  and  _251
REMARK   98  A    between atoms: _251  and  _252
REMARK   99  A    between atoms: _255  and  _257
REMARK  100  A    between atoms: _257  and  _258
REMARK  101  A    between atoms: _257  and  _260
REMARK  102  A    between atoms: _260  and  _261
REMARK  103  A    between atoms: _266  and  _268
REMARK  104  A    between atoms: _268  and  _269
REMARK  105  A    between atoms: _268  and  _271
REMARK  106  A    between atoms: _271  and  _272
REMARK  107  A    between atoms: _275  and  _277
REMARK  108  A    between atoms: _277  and  _278
REMARK  109  A    between atoms: _277  and  _280
REMARK  110  A    between atoms: _280  and  _281
REMARK  111  A    between atoms: _286  and  _288
REMARK  112  A    between atoms: _288  and  _289
REMARK  113  A    between atoms: _288  and  _291
REMARK  114  A    between atoms: _291  and  _292
REMARK  115  A    between atoms: _297  and  _299
REMARK  116  A    between atoms: _299  and  _300
REMARK  117  A    between atoms: _299  and  _302
REMARK  118  A    between atoms: _302  and  _303
REMARK  119  A    between atoms: _306  and  _308
REMARK  120  A    between atoms: _308  and  _309
REMARK  121  A    between atoms: _308  and  _311
REMARK  122  A    between atoms: _314  and  _316
REMARK  123  A    between atoms: _316  and  _317
REMARK  124  A    between atoms: _316  and  _319
REMARK  125  A    between atoms: _319  and  _320
REMARK  126  A    between atoms: _323  and  _325
REMARK  127  A    between atoms: _325  and  _326
REMARK  128  A    between atoms: _325  and  _328
REMARK  129  A    between atoms: _328  and  _329
REMARK  130  A    between atoms: _329  and  _330
REMARK  131  A    between atoms: _333  and  _335
REMARK  132  A    between atoms: _335  and  _336
REMARK  133  A    between atoms: _339  and  _341
REMARK  134  A    between atoms: _341  and  _342
REMARK  135  A    between atoms: _341  and  _344
REMARK  136  A    between atoms: _344  and  _345
REMARK  137  A    between atoms: _348  and  _350
REMARK  138  A    between atoms: _350  and  _351
REMARK  139  A    between atoms: _350  and  _353
REMARK  140  A    between atoms: _353  and  _354
REMARK  141  A    between atoms: _354  and  _355
REMARK  142  A    between atoms: _358  and  _360
REMARK  143  A    between atoms: _360  and  _361
REMARK  144  A    between atoms: _360  and  _363
REMARK  145  A    between atoms: _363  and  _364
REMARK  146  A    between atoms: _369  and  _371
REMARK  147  A    between atoms: _371  and  _372
REMARK  148  A    between atoms: _374  and  _376
REMARK  149  A    between atoms: _376  and  _377
REMARK  150  A    between atoms: _376  and  _379
REMARK  151  A    between atoms: _382  and  _384
REMARK  152  A    between atoms: _384  and  _385
REMARK  153  A    between atoms: _388  and  _390
REMARK  154  A    between atoms: _390  and  _391
REMARK  155  A    between atoms: _390  and  _393
REMARK  156  A    between atoms: _393  and  _394
REMARK  157  A    between atoms: _399  and  _401
REMARK  158  A    between atoms: _401  and  _402
REMARK  159  A    between atoms: _401  and  _404
REMARK  160  A    between atoms: _404  and  _405
REMARK  161  A    between atoms: _405  and  _406
REMARK  162  A    between atoms: _406  and  _407
REMARK  163  A    between atoms: _407  and  _408
REMARK  164  A    between atoms: _412  and  _414
REMARK  165  A    between atoms: _414  and  _415
REMARK  166  A    between atoms: _414  and  _417
REMARK  167  A    between atoms: _417  and  _418
REMARK  168  A    between atoms: _423  and  _425
REMARK  169  A    between atoms: _425  and  _426
REMARK  170  A    between atoms: _428  and  _430
REMARK  171  A    between atoms: _430  and  _431
REMARK  172  A    between atoms: _430  and  _433
REMARK  173  A    between atoms: _433  and  _434
REMARK  174  A    between atoms: _434  and  _435
REMARK  175  A    between atoms: _435  and  _436
REMARK  176  A    between atoms: _436  and  _437
REMARK  177  A    between atoms: _441  and  _443
REMARK  178  A    between atoms: _443  and  _444
REMARK  179  A    between atoms: _443  and  _446
REMARK  180  A    between atoms: _446  and  _447
REMARK  181  A    between atoms: _447  and  _448
REMARK  182  A    between atoms: _448  and  _449
REMARK  183  A    between atoms: _458  and  _460
REMARK  184  A    between atoms: _460  and  _461
REMARK  185  A    between atoms: _460  and  _463
REMARK  186  A    between atoms: _463  and  _464
REMARK  187  A    between atoms: _469  and  _470
REMARK  188  A    between atoms: _472  and  _474
REMARK  189  A    between atoms: _474  and  _475
REMARK  190  A    between atoms: _474  and  _477
REMARK  191  A    between atoms: _477  and  _478
REMARK  192  A    between atoms: _478  and  _479
REMARK  193  A    between atoms: _479  and  _480
REMARK  194  A    between atoms: _480  and  _481
REMARK  195  A    between atoms: _485  and  _487
REMARK  196  A    between atoms: _487  and  _488
REMARK  197  A    between atoms: _487  and  _490
REMARK  198  A    between atoms: _490  and  _491
REMARK  199  A    between atoms: _494  and  _496
REMARK  200  A    between atoms: _496  and  _497
REMARK  201  A    between atoms: _496  and  _499
REMARK  202  A    between atoms: _499  and  _500
REMARK  203  A    between atoms: _500  and  _501
REMARK  204  A    between atoms: _504  and  _506
REMARK  205  A    between atoms: _506  and  _507
REMARK  206  A    between atoms: _510  and  _512
REMARK  207  A    between atoms: _512  and  _513
REMARK  208  A    between atoms: _512  and  _515
REMARK  209  A    between atoms: _515  and  _516
REMARK  210  A    between atoms: _518  and  _520
REMARK  211  A    between atoms: _520  and  _521
REMARK  212  A    between atoms: _523  and  _525
REMARK  213  A    between atoms: _525  and  _526
REMARK  214  A    between atoms: _525  and  _528
REMARK  215  A    between atoms: _528  and  _529
REMARK  216  A    between atoms: _532  and  _534
REMARK  217  A    between atoms: _534  and  _535
REMARK  218  A    between atoms: _537  and  _539
REMARK  219  A    between atoms: _539  and  _540
REMARK  220  A    between atoms: _539  and  _542
REMARK  221  A    between atoms: _542  and  _543
REMARK  222  A    between atoms: _548  and  _550
REMARK  223  A    between atoms: _550  and  _551
REMARK  224  A    between atoms: _550  and  _553
REMARK  225  A    between atoms: _553  and  _554
REMARK  226  A    between atoms: _554  and  _555
REMARK  227  A    between atoms: _562  and  _563
REMARK  228  A    between atoms: _563  and  _579
REMARK  229  A    between atoms: _564  and  _566
REMARK  230  A    between atoms: _566  and  _567
REMARK  231  A    between atoms: _567  and  _568
REMARK  232  A    between atoms: _572  and  _574
REMARK  233  A    between atoms: _574  and  _575
REMARK  234  A    between atoms: _574  and  _582
REMARK  235  A    between atoms: _575  and  _576
REMARK  236  A    between atoms: _576  and  _577
REMARK  237  A    between atoms: _577  and  _578
REMARK  238  A    between atoms: _578  and  _579
REMARK  239  A    between atoms: _584  and  _586
REMARK  240  A    between atoms: _586  and  _587
REMARK  241  A    between atoms: _586  and  _589
REMARK  242  A    between atoms: _589  and  _590
REMARK  243  A    between atoms: _593  and  _595
REMARK  244  A    between atoms: _595  and  _596
REMARK  245  A    between atoms: _598  and  _600
REMARK  246  A    between atoms: _600  and  _601
REMARK  247  A    between atoms: _604  and  _606
REMARK  248  A    between atoms: _606  and  _607
REMARK  249  A    between atoms: _606  and  _609
REMARK  250  A    between atoms: _609  and  _610
REMARK  251  A    between atoms: _615  and  _616
REMARK                            x       y       z     vdW  Elec       q    Type
REMARK                         _______ _______ _______ _____ _____    ______ ____
ROOT
ATOM      1  C   GLY A   5      28.662  19.882  34.571  0.00  0.00    +0.243 C 
ATOM      2  O   GLY A   5      28.295  18.959  35.291  0.00  0.00    -0.273 OA
ATOM      3  N   ARG A   6      28.005  20.238  33.476  0.00  0.00    -0.297 N 
ATOM      4  H   ARG A   6      28.363  21.023  32.895  0.00  0.00    +0.150 HD
ENDROOT
BRANCH   3   5
ATOM      5  CA  ARG A   6      26.773  19.535  33.072  0.00  0.00    +0.149 C 
BRANCH   5   6
ATOM      6  C   ARG A   6      27.129  18.158  32.492  0.00  0.00    +0.241 C 
ATOM      7  O   ARG A   6      26.394  17.192  32.688  0.00  0.00    -0.273 OA
ATOM      8  N   LEU A   7      28.282  18.063  31.828  0.00  0.00    -0.297 N 
ATOM      9  H   LEU A   7      28.844  18.923  31.667  0.00  0.00    +0.150 HD
BRANCH   8  10
ATOM     10  CA  LEU A   7      28.780  16.778  31.318  0.00  0.00    +0.149 C 
BRANCH  10  11
ATOM     11  C   LEU A   7      28.946  15.757  32.446  0.00  0.00    +0.241 C 
ATOM     12  N   ALA A   8      29.553  16.190  33.553  0.00  0.00    -0.298 N 
ATOM     13  H   ALA A   8      29.946  17.153  33.560  0.00  0.00    +0.150 HD
ATOM     14  O   LEU A   7      28.527  14.612  32.315  0.00  0.00    -0.273 OA
BRANCH  12  15
ATOM     15  CA  ALA A   8      29.689  15.377  34.746  0.00  0.00    +0.137 C 
ATOM     16  CB  ALA A   8      30.397  16.169  35.842  0.00  0.00    +0.030 C 
BRANCH  15  17
ATOM     17  C   ALA A   8      28.318  14.863  35.234  0.00  0.00    +0.227 C 
ATOM     18  O   ALA A   8      28.195  13.703  35.609  0.00  0.00    -0.286 OA
ENDBRANCH  15  17
ENDBRANCH  12  15
ENDBRANCH  10  11
BRANCH  10  19
ATOM     19  CB  LEU A   7      30.107  16.947  30.554  0.00  0.00    +0.029 C 
BRANCH  19  20
ATOM     20  CG  LEU A   7      30.556  15.692  29.782  0.00  0.00    +0.002 C 
ATOM     21  CD2 LEU A   7      32.054  15.702  29.486  0.00  0.00    +0.000 C 
ATOM     22  CD1 LEU A   7      29.748  15.501  28.489  0.00  0.00    +0.000 C 
ENDBRANCH  19  20
ENDBRANCH  10  19
ENDBRANCH   8  10
ENDBRANCH   5   6
BRANCH   5  23
ATOM     23  CB  ARG A   6      25.925  20.397  32.105  0.00  0.00    +0.033 C 
BRANCH  23  24
ATOM     24  CG  ARG A   6      24.628  19.715  31.599  0.00  0.00    +0.045 C 
BRANCH  24  25
ATOM     25  CD  ARG A   6      23.690  19.289  32.764  0.00  0.00    +0.174 C 
BRANCH  25  26
ATOM     26  NE  ARG A   6      23.241  17.900  32.613  0.00  0.00    -0.265 N 
ATOM     27  CZ  ARG A   6      22.438  17.259  33.462  0.00  0.00    +0.342 C 
ATOM     28  NH2 ARG A   6      21.993  17.862  34.548  0.00  0.00    -0.292 N 
ATOM     29 HH21 ARG A   6      21.367  17.354  35.205  0.00  0.00    +0.255 HD
ATOM     30 HH22 ARG A   6      22.268  18.845  34.747  0.00  0.00    +0.255 HD
ATOM     31  NH1 ARG A   6      22.095  15.997  33.228  0.00  0.00    -0.292 N 
ATOM     32 HH11 ARG A   6      21.468  15.497  33.891  0.00  0.00    +0.255 HD
ATOM     33 HH12 ARG A   6      22.453  15.509  32.382  0.00  0.00    +0.255 HD
ATOM     34  HE  ARG A   6      23.575  17.375  31.779  0.00  0.00    +0.259 HD
ENDBRANCH  25  26
ENDBRANCH  24  25
ENDBRANCH  23  24
ENDBRANCH   5  23
ENDBRANCH   3   5
BRANCH   1  35
ATOM     35  CA  GLY A   5      29.909  20.688  34.917  0.00  0.00    +0.176 C 
BRANCH  35  37
ATOM     36  C   LEU A   4      31.348  20.221  33.012  0.00  0.00    +0.241 C 
ATOM     37  N   GLY A   5      30.659  21.105  33.732  0.00  0.00    -0.295 N 
ATOM     38  H   GLY A   5      30.654  22.105  33.448  0.00  0.00    +0.150 HD
ATOM     39  O   LEU A   4      31.381  19.024  33.294  0.00  0.00    -0.273 OA
BRANCH  36  40
ATOM     40  CA  LEU A   4      32.097  20.754  31.777  0.00  0.00    +0.149 C 
BRANCH  40  42
ATOM     41  C   GLY A   3      30.116  21.362  30.472  0.00  0.00    +0.243 C 
ATOM     42  N   LEU A   4      31.262  21.710  31.046  0.00  0.00    -0.297 N 
ATOM     43  H   LEU A   4      31.578  22.698  30.974  0.00  0.00    +0.150 HD
ATOM     44  O   GLY A   3      29.661  20.204  30.521  0.00  0.00    -0.273 OA
BRANCH  41  45
ATOM     45  CA  GLY A   3      29.382  22.470  29.729  0.00  0.00    +0.176 C 
BRANCH  45  48
ATOM     46  C   GLY A   2      28.676  23.901  31.597  0.00  0.00    +0.243 C 
ATOM     47  O   GLY A   2      28.308  22.953  32.296  0.00  0.00    -0.273 OA
ATOM     48  N   GLY A   3      29.295  23.766  30.424  0.00  0.00    -0.295 N 
ATOM     49  H   GLY A   3      29.730  24.602  29.986  0.00  0.00    +0.150 HD
BRANCH  46  50
ATOM     50  CA  GLY A   2      28.429  25.308  32.057  0.00  0.00    +0.176 C 
BRANCH  50  53
ATOM     51  C   ASN A   1      28.734  26.645  34.049  0.00  0.00    +0.239 C 
ATOM     52  O   ASN A   1      27.999  27.523  33.610  0.00  0.00    -0.274 OA
ATOM     53  N   GLY A   2      28.959  25.507  33.400  0.00  0.00    -0.296 N 
ATOM     54  H   GLY A   2      29.516  24.755  33.853  0.00  0.00    +0.150 HD
BRANCH  51  55
ATOM     55  CA  ASN A   1      29.475  26.843  35.366  0.00  0.00    +0.154 C 
BRANCH  55  56
ATOM     56  N   ASN A   1      29.563  25.657  36.213  0.00  0.00    -0.238 NA
ATOM     57  H   ASN A   1      30.327  24.973  36.038  0.00  0.00    +0.142 HD
ENDBRANCH  55  56
BRANCH  55  58
ATOM     58  CB  ASN A   1      30.884  27.355  35.065  0.00  0.00    +0.111 C 
BRANCH  58  59
ATOM     59  CG  ASN A   1      31.472  28.098  36.231  0.00  0.00    +0.221 C 
ATOM     60  ND2 ASN A   1      32.475  27.506  36.863  0.00  0.00    -0.329 N 
ATOM     61 HD21 ASN A   1      32.909  27.961  37.691  0.00  0.00    +0.145 HD
ATOM     62 HD22 ASN A   1      32.828  26.586  36.531  0.00  0.00    +0.145 HD
ATOM     63  OD1 ASN A   1      31.013  29.189  36.581  0.00  0.00    -0.275 OA
ENDBRANCH  58  59
ENDBRANCH  55  58
ENDBRANCH  51  55
ENDBRANCH  50  53
ENDBRANCH  46  50
ENDBRANCH  45  48
ENDBRANCH  41  45
ENDBRANCH  40  42
BRANCH  40  64
ATOM     64  CB  LEU A   4      33.460  21.409  32.141  0.00  0.00    +0.029 C 
BRANCH  64  65
ATOM     65  CG  LEU A   4      34.479  20.769  33.101  0.00  0.00    +0.002 C 
ATOM     66  CD2 LEU A   4      34.096  21.049  34.532  0.00  0.00    +0.000 C 
ATOM     67  CD1 LEU A   4      35.931  21.299  32.841  0.00  0.00    +0.000 C 
ENDBRANCH  64  65
ENDBRANCH  40  64
ENDBRANCH  36  40
ENDBRANCH  35  37
ENDBRANCH   1  35
TORSDOF 26
REMARK  Name = ../refined-set-2016/3l7d/3l7d_pocket.pdb
REMARK  251 active torsions:
REMARK  status: ('A' for Active; 'I' for Inactive)
REMARK    1  A    between atoms: _1  and  _3
REMARK    2  A    between atoms: _3  and  _4
REMARK    3  A    between atoms: _3  and  _6
REMARK    4  A    between atoms: _6  and  _7
REMARK    5  A    between atoms: _12  and  _13
REMARK    6  A    between atoms: _15  and  _17
REMARK    7  A    between atoms: _17  and  _18
REMARK    8  A    between atoms: _17  and  _20
REMARK    9  A    between atoms: _20  and  _21
REMARK   10  A    between atoms: _24  and  _26
REMARK   11  A    between atoms: _26  and  _27
REMARK   12  A    between atoms: _26  and  _29
REMARK   13  A    between atoms: _29  and  _30
REMARK   14  A    between atoms: _30  and  _31
REMARK   15  A    between atoms: _34  and  _36
REMARK   16  A    between atoms: _36  and  _37
REMARK   17  A    between atoms: _36  and  _39
REMARK   18  A    between atoms: _39  and  _40
REMARK   19  A    between atoms: _45  and  _47
REMARK   20  A    between atoms: _47  and  _48
REMARK   21  A    between atoms: _50  and  _52
REMARK   22  A    between atoms: _52  and  _53
REMARK   23  A    between atoms: _55  and  _57
REMARK   24  A    between atoms: _57  and  _58
REMARK   25  A    between atoms: _57  and  _60
REMARK   26  A    between atoms: _60  and  _61
REMARK   27  A    between atoms: _64  and  _66
REMARK   28  A    between atoms: _66  and  _67
REMARK   29  A    between atoms: _69  and  _71
REMARK   30  A    between atoms: _71  and  _72
REMARK   31  A    between atoms: _71  and  _74
REMARK   32  A    between atoms: _74  and  _75
REMARK   33  A    between atoms: _75  and  _76
REMARK   34  A    between atoms: _76  and  _77
REMARK   35  A    between atoms: _86  and  _88
REMARK   36  A    between atoms: _88  and  _89
REMARK   37  A    between atoms: _88  and  _91
REMARK   38  A    between atoms: _91  and  _92
REMARK   39  A    between atoms: _95  and  _97
REMARK   40  A    between atoms: _97  and  _98
REMARK   41  A    between atoms: _101  and  _103
REMARK   42  A    between atoms: _103  and  _104
REMARK   43  A    between atoms: _103  and  _106
REMARK   44  A    between atoms: _106  and  _107
REMARK   45  A    between atoms: _113  and  _115
REMARK   46  A    between atoms: _115  and  _116
REMARK   47  A    between atoms: _115  and  _118
REMARK   48  A    between atoms: _118  and  _119
REMARK   49  A    between atoms: _124  and  _125
REMARK   50  A    between atoms: _128  and  _129
REMARK   51  A    between atoms: _134  and  _136
REMARK   52  A    between atoms: _136  and  _137
REMARK   53  A    between atoms: _136  and  _139
REMARK   54  A    between atoms: _139  and  _140
REMARK   55  A    between atoms: _145  and  _147
REMARK   56  A    between atoms: _147  and  _148
REMARK   57  A    between atoms: _147  and  _150
REMARK   58  A    between atoms: _150  and  _151
REMARK   59  A    between atoms: _154  and  _156
REMARK   60  A    between atoms: _156  and  _157
REMARK   61  A    between atoms: _156  and  _159
REMARK   62  A    between atoms: _159  and  _160
REMARK   63  A    between atoms: _165  and  _167
REMARK   64  A    between atoms: _167  and  _168
REMARK   65  A    between atoms: _167  and  _170
REMARK   66  A    between atoms: _170  and  _171
REMARK   67  A    between atoms: _177  and  _179
REMARK   68  A    between atoms: _179  and  _180
REMARK   69  A    between atoms: _179  and  _182
REMARK   70  A    between atoms: _182  and  _183
REMARK   71  A    between atoms: _189  and  _191
REMARK   72  A    between atoms: _191  and  _192
REMARK   73  A    between atoms: _191  and  _194
REMARK   74  A    between atoms: _194  and  _195
REMARK   75  A    between atoms: _195  and  _196
REMARK   76  A    between atoms: _199  and  _201
REMARK   77  A    between atoms: _201  and  _202
REMARK   78  A    between atoms: _201  and  _204
REMARK   79  A    between atoms: _204  and  _205
REMARK   80  A    between atoms: _205  and  _206
REMARK   81  A    between atoms: _206  and  _207
REMARK   82  A    between atoms: _216  and  _218
REMARK   83  A    between atoms: _218  and  _219
REMARK   84  A    between atoms: _218  and  _221
REMARK   85  A    between atoms: _221  and  _222
REMARK   86  A    between atoms: _222  and  _223
REMARK   87  A    between atoms: _226  and  _228
REMARK   88  A    between atoms: _228  and  _229
REMARK   89  A    between atoms: _228  and  _231
REMARK   90  A    between atoms: _231  and  _232
REMARK   91  A    between atoms: _237  and  _239
REMARK   92  A    between atoms: _239  and  _240
REMARK   93  A    between atoms: _239  and  _242
REMARK   94  A    between atoms: _242  and  _243
REMARK   95  A    between atoms: _246  and  _248
REMARK   96  A    between atoms: _248  and  _249
REMARK   97  A    between atoms: _248  and  _251
REMARK   98  A    between atoms: _251  and  _252
REMARK   99  A    between atoms: _255  and  _257
REMARK  100  A    between atoms: _257  and  _258
REMARK  101  A    between atoms: _257  and  _260
REMARK  102  A    between atoms: _260  and  _261
REMARK  103  A    between atoms: _266  and  _268
REMARK  104  A    between atoms: _268  and  _269
REMARK  105  A    between atoms: _268  and  _271
REMARK  106  A    between atoms: _271  and  _272
REMARK  107  A    between atoms: _275  and  _277
REMARK  108  A    between atoms: _277  and  _278
REMARK  109  A    between atoms: _277  and  _280
REMARK  110  A    between atoms: _280  and  _281
REMARK  111  A    between atoms: _286  and  _288
REMARK  112  A    between atoms: _288  and  _289
REMARK  113  A    between atoms: _288  and  _291
REMARK  114  A    between atoms: _291  and  _292
REMARK  115  A    between atoms: _297  and  _299
REMARK  116  A    between atoms: _299  and  _300
REMARK  117  A    between atoms: _299  and  _302
REMARK  118  A    between atoms: _302  and  _303
REMARK  119  A    between atoms: _306  and  _308
REMARK  120  A    between atoms: _308  and  _309
REMARK  121  A    between atoms: _308  and  _311
REMARK  122  A    between atoms: _314  and  _316
REMARK  123  A    between atoms: _316  and  _317
REMARK  124  A    between atoms: _316  and  _319
REMARK  125  A    between atoms: _319  and  _320
REMARK  126  A    between atoms: _323  and  _325
REMARK  127  A    between atoms: _325  and  _326
REMARK  128  A    between atoms: _325  and  _328
REMARK  129  A    between atoms: _328  and  _329
REMARK  130  A    between atoms: _329  and  _330
REMARK  131  A    between atoms: _333  and  _335
REMARK  132  A    between atoms: _335  and  _336
REMARK  133  A    between atoms: _339  and  _341
REMARK  134  A    between atoms: _341  and  _342
REMARK  135  A    between atoms: _341  and  _344
REMARK  136  A    between atoms: _344  and  _345
REMARK  137  A    between atoms: _348  and  _350
REMARK  138  A    between atoms: _350  and  _351
REMARK  139  A    between atoms: _350  and  _353
REMARK  140  A    between atoms: _353  and  _354
REMARK  141  A    between atoms: _354  and  _355
REMARK  142  A    between atoms: _358  and  _360
REMARK  143  A    between atoms: _360  and  _361
REMARK  144  A    between atoms: _360  and  _363
REMARK  145  A    between atoms: _363  and  _364
REMARK  146  A    between atoms: _369  and  _371
REMARK  147  A    between atoms: _371  and  _372
REMARK  148  A    between atoms: _374  and  _376
REMARK  149  A    between atoms: _376  and  _377
REMARK  150  A    between atoms: _376  and  _379
REMARK  151  A    between atoms: _382  and  _384
REMARK  152  A    between atoms: _384  and  _385
REMARK  153  A    between atoms: _388  and  _390
REMARK  154  A    between atoms: _390  and  _391
REMARK  155  A    between atoms: _390  and  _393
REMARK  156  A    between atoms: _393  and  _394
REMARK  157  A    between atoms: _399  and  _401
REMARK  158  A    between atoms: _401  and  _402
REMARK  159  A    between atoms: _401  and  _404
REMARK  160  A    between atoms: _404  and  _405
REMARK  161  A    between atoms: _405  and  _406
REMARK  162  A    between atoms: _406  and  _407
REMARK  163  A    between atoms: _407  and  _408
REMARK  164  A    between atoms: _412  and  _414
REMARK  165  A    between atoms: _414  and  _415
REMARK  166  A    between atoms: _414  and  _417
REMARK  167  A    between atoms: _417  and  _418
REMARK  168  A    between atoms: _423  and  _425
REMARK  169  A    between atoms: _425  and  _426
REMARK  170  A    between atoms: _428  and  _430
REMARK  171  A    between atoms: _430  and  _431
REMARK  172  A    between atoms: _430  and  _433
REMARK  173  A    between atoms: _433  and  _434
REMARK  174  A    between atoms: _434  and  _435
REMARK  175  A    between atoms: _435  and  _436
REMARK  176  A    between atoms: _436  and  _437
REMARK  177  A    between atoms: _441  and  _443
REMARK  178  A    between atoms: _443  and  _444
REMARK  179  A    between atoms: _443  and  _446
REMARK  180  A    between atoms: _446  and  _447
REMARK  181  A    between atoms: _447  and  _448
REMARK  182  A    between atoms: _448  and  _449
REMARK  183  A    between atoms: _458  and  _460
REMARK  184  A    between atoms: _460  and  _461
REMARK  185  A    between atoms: _460  and  _463
REMARK  186  A    between atoms: _463  and  _464
REMARK  187  A    between atoms: _469  and  _470
REMARK  188  A    between atoms: _472  and  _474
REMARK  189  A    between atoms: _474  and  _475
REMARK  190  A    between atoms: _474  and  _477
REMARK  191  A    between atoms: _477  and  _478
REMARK  192  A    between atoms: _478  and  _479
REMARK  193  A    between atoms: _479  and  _480
REMARK  194  A    between atoms: _480  and  _481
REMARK  195  A    between atoms: _485  and  _487
REMARK  196  A    between atoms: _487  and  _488
REMARK  197  A    between atoms: _487  and  _490
REMARK  198  A    between atoms: _490  and  _491
REMARK  199  A    between atoms: _494  and  _496
REMARK  200  A    between atoms: _496  and  _497
REMARK  201  A    between atoms: _496  and  _499
REMARK  202  A    between atoms: _499  and  _500
REMARK  203  A    between atoms: _500  and  _501
REMARK  204  A    between atoms: _504  and  _506
REMARK  205  A    between atoms: _506  and  _507
REMARK  206  A    between atoms: _510  and  _512
REMARK  207  A    between atoms: _512  and  _513
REMARK  208  A    between atoms: _512  and  _515
REMARK  209  A    between atoms: _515  and  _516
REMARK  210  A    between atoms: _518  and  _520
REMARK  211  A    between atoms: _520  and  _521
REMARK  212  A    between atoms: _523  and  _525
REMARK  213  A    between atoms: _525  and  _526
REMARK  214  A    between atoms: _525  and  _528
REMARK  215  A    between atoms: _528  and  _529
REMARK  216  A    between atoms: _532  and  _534
REMARK  217  A    between atoms: _534  and  _535
REMARK  218  A    between atoms: _537  and  _539
REMARK  219  A    between atoms: _539  and  _540
REMARK  220  A    between atoms: _539  and  _542
REMARK  221  A    between atoms: _542  and  _543
REMARK  222  A    between atoms: _548  and  _550
REMARK  223  A    between atoms: _550  and  _551
REMARK  224  A    between atoms: _550  and  _553
REMARK  225  A    between atoms: _553  and  _554
REMARK  226  A    between atoms: _554  and  _555
REMARK  227  A    between atoms: _562  and  _563
REMARK  228  A    between atoms: _563  and  _579
REMARK  229  A    between atoms: _564  and  _566
REMARK  230  A    between atoms: _566  and  _567
REMARK  231  A    between atoms: _567  and  _568
REMARK  232  A    between atoms: _572  and  _574
REMARK  233  A    between atoms: _574  and  _575
REMARK  234  A    between atoms: _574  and  _582
REMARK  235  A    between atoms: _575  and  _576
REMARK  236  A    between atoms: _576  and  _577
REMARK  237  A    between atoms: _577  and  _578
REMARK  238  A    between atoms: _578  and  _579
REMARK  239  A    between atoms: _584  and  _586
REMARK  240  A    between atoms: _586  and  _587
REMARK  241  A    between atoms: _586  and  _589
REMARK  242  A    between atoms: _589  and  _590
REMARK  243  A    between atoms: _593  and  _595
REMARK  244  A    between atoms: _595  and  _596
REMARK  245  A    between atoms: _598  and  _600
REMARK  246  A    between atoms: _600  and  _601
REMARK  247  A    between atoms: _604  and  _606
REMARK  248  A    between atoms: _606  and  _607
REMARK  249  A    between atoms: _606  and  _609
REMARK  250  A    between atoms: _609  and  _610
REMARK  251  A    between atoms: _615  and  _616
REMARK                            x       y       z     vdW  Elec       q    Type
REMARK                         _______ _______ _______ _____ _____    ______ ____
ROOT
ATOM      1  CB  PHE A   1      29.232  11.464  33.075  0.00  0.00    +0.051 C 
ENDROOT
BRANCH   1   2
ATOM      2  CG  PHE A   1      29.928  11.677  31.742  0.00  0.00    -0.020 A 
ATOM      3  CD2 PHE A   1      31.322  11.791  31.684  0.00  0.00    -0.004 A 
ATOM      4  CE2 PHE A   1      31.978  11.986  30.447  0.00  0.00    -0.000 A 
ATOM      5  CZ  PHE A   1      31.247  12.070  29.272  0.00  0.00    -0.000 A 
ATOM      6  CE1 PHE A   1      29.847  11.957  29.316  0.00  0.00    -0.000 A 
ATOM      7  CD1 PHE A   1      29.205  11.770  30.548  0.00  0.00    -0.004 A 
ENDBRANCH   1   2
BRANCH   1   8
ATOM      8  CA  PHE A   1      27.741  11.073  32.954  0.00  0.00    +0.137 C 
BRANCH   8   9
ATOM      9  N   PHE A   1      26.918  12.259  32.750  0.00  0.00    -0.239 NA
ATOM     10  H   PHE A   1      27.375  13.193  32.781  0.00  0.00    +0.142 HD
ENDBRANCH   8   9
BRANCH   8  11
ATOM     11  C   PHE A   1      27.293  10.237  34.157  0.00  0.00    +0.224 C 
ATOM     12  O   PHE A   1      27.226   9.017  34.057  0.00  0.00    -0.287 OA
ENDBRANCH   8  11
ENDBRANCH   1   8
TORSDOF 4
REMARK  Name = ../refined-set-2016/3l7d/3l7d_pocket.pdb
REMARK  251 active torsions:
REMARK  status: ('A' for Active; 'I' for Inactive)
REMARK    1  A    between atoms: _1  and  _3
REMARK    2  A    between atoms: _3  and  _4
REMARK    3  A    between atoms: _3  and  _6
REMARK    4  A    between atoms: _6  and  _7
REMARK    5  A    between atoms: _12  and  _13
REMARK    6  A    between atoms: _15  and  _17
REMARK    7  A    between atoms: _17  and  _18
REMARK    8  A    between atoms: _17  and  _20
REMARK    9  A    between atoms: _20  and  _21
REMARK   10  A    between atoms: _24  and  _26
REMARK   11  A    between atoms: _26  and  _27
REMARK   12  A    between atoms: _26  and  _29
REMARK   13  A    between atoms: _29  and  _30
REMARK   14  A    between atoms: _30  and  _31
REMARK   15  A    between atoms: _34  and  _36
REMARK   16  A    between atoms: _36  and  _37
REMARK   17  A    between atoms: _36  and  _39
REMARK   18  A    between atoms: _39  and  _40
REMARK   19  A    between atoms: _45  and  _47
REMARK   20  A    between atoms: _47  and  _48
REMARK   21  A    between atoms: _50  and  _52
REMARK   22  A    between atoms: _52  and  _53
REMARK   23  A    between atoms: _55  and  _57
REMARK   24  A    between atoms: _57  and  _58
REMARK   25  A    between atoms: _57  and  _60
REMARK   26  A    between atoms: _60  and  _61
REMARK   27  A    between atoms: _64  and  _66
REMARK   28  A    between atoms: _66  and  _67
REMARK   29  A    between atoms: _69  and  _71
REMARK   30  A    between atoms: _71  and  _72
REMARK   31  A    between atoms: _71  and  _74
REMARK   32  A    between atoms: _74  and  _75
REMARK   33  A    between atoms: _75  and  _76
REMARK   34  A    between atoms: _76  and  _77
REMARK   35  A    between atoms: _86  and  _88
REMARK   36  A    between atoms: _88  and  _89
REMARK   37  A    between atoms: _88  and  _91
REMARK   38  A    between atoms: _91  and  _92
REMARK   39  A    between atoms: _95  and  _97
REMARK   40  A    between atoms: _97  and  _98
REMARK   41  A    between atoms: _101  and  _103
REMARK   42  A    between atoms: _103  and  _104
REMARK   43  A    between atoms: _103  and  _106
REMARK   44  A    between atoms: _106  and  _107
REMARK   45  A    between atoms: _113  and  _115
REMARK   46  A    between atoms: _115  and  _116
REMARK   47  A    between atoms: _115  and  _118
REMARK   48  A    between atoms: _118  and  _119
REMARK   49  A    between atoms: _124  and  _125
REMARK   50  A    between atoms: _128  and  _129
REMARK   51  A    between atoms: _134  and  _136
REMARK   52  A    between atoms: _136  and  _137
REMARK   53  A    between atoms: _136  and  _139
REMARK   54  A    between atoms: _139  and  _140
REMARK   55  A    between atoms: _145  and  _147
REMARK   56  A    between atoms: _147  and  _148
REMARK   57  A    between atoms: _147  and  _150
REMARK   58  A    between atoms: _150  and  _151
REMARK   59  A    between atoms: _154  and  _156
REMARK   60  A    between atoms: _156  and  _157
REMARK   61  A    between atoms: _156  and  _159
REMARK   62  A    between atoms: _159  and  _160
REMARK   63  A    between atoms: _165  and  _167
REMARK   64  A    between atoms: _167  and  _168
REMARK   65  A    between atoms: _167  and  _170
REMARK   66  A    between atoms: _170  and  _171
REMARK   67  A    between atoms: _177  and  _179
REMARK   68  A    between atoms: _179  and  _180
REMARK   69  A    between atoms: _179  and  _182
REMARK   70  A    between atoms: _182  and  _183
REMARK   71  A    between atoms: _189  and  _191
REMARK   72  A    between atoms: _191  and  _192
REMARK   73  A    between atoms: _191  and  _194
REMARK   74  A    between atoms: _194  and  _195
REMARK   75  A    between atoms: _195  and  _196
REMARK   76  A    between atoms: _199  and  _201
REMARK   77  A    between atoms: _201  and  _202
REMARK   78  A    between atoms: _201  and  _204
REMARK   79  A    between atoms: _204  and  _205
REMARK   80  A    between atoms: _205  and  _206
REMARK   81  A    between atoms: _206  and  _207
REMARK   82  A    between atoms: _216  and  _218
REMARK   83  A    between atoms: _218  and  _219
REMARK   84  A    between atoms: _218  and  _221
REMARK   85  A    between atoms: _221  and  _222
REMARK   86  A    between atoms: _222  and  _223
REMARK   87  A    between atoms: _226  and  _228
REMARK   88  A    between atoms: _228  and  _229
REMARK   89  A    between atoms: _228  and  _231
REMARK   90  A    between atoms: _231  and  _232
REMARK   91  A    between atoms: _237  and  _239
REMARK   92  A    between atoms: _239  and  _240
REMARK   93  A    between atoms: _239  and  _242
REMARK   94  A    between atoms: _242  and  _243
REMARK   95  A    between atoms: _246  and  _248
REMARK   96  A    between atoms: _248  and  _249
REMARK   97  A    between atoms: _248  and  _251
REMARK   98  A    between atoms: _251  and  _252
REMARK   99  A    between atoms: _255  and  _257
REMARK  100  A    between atoms: _257  and  _258
REMARK  101  A    between atoms: _257  and  _260
REMARK  102  A    between atoms: _260  and  _261
REMARK  103  A    between atoms: _266  and  _268
REMARK  104  A    between atoms: _268  and  _269
REMARK  105  A    between atoms: _268  and  _271
REMARK  106  A    between atoms: _271  and  _272
REMARK  107  A    between atoms: _275  and  _277
REMARK  108  A    between atoms: _277  and  _278
REMARK  109  A    between atoms: _277  and  _280
REMARK  110  A    between atoms: _280  and  _281
REMARK  111  A    between atoms: _286  and  _288
REMARK  112  A    between atoms: _288  and  _289
REMARK  113  A    between atoms: _288  and  _291
REMARK  114  A    between atoms: _291  and  _292
REMARK  115  A    between atoms: _297  and  _299
REMARK  116  A    between atoms: _299  and  _300
REMARK  117  A    between atoms: _299  and  _302
REMARK  118  A    between atoms: _302  and  _303
REMARK  119  A    between atoms: _306  and  _308
REMARK  120  A    between atoms: _308  and  _309
REMARK  121  A    between atoms: _308  and  _311
REMARK  122  A    between atoms: _314  and  _316
REMARK  123  A    between atoms: _316  and  _317
REMARK  124  A    between atoms: _316  and  _319
REMARK  125  A    between atoms: _319  and  _320
REMARK  126  A    between atoms: _323  and  _325
REMARK  127  A    between atoms: _325  and  _326
REMARK  128  A    between atoms: _325  and  _328
REMARK  129  A    between atoms: _328  and  _329
REMARK  130  A    between atoms: _329  and  _330
REMARK  131  A    between atoms: _333  and  _335
REMARK  132  A    between atoms: _335  and  _336
REMARK  133  A    between atoms: _339  and  _341
REMARK  134  A    between atoms: _341  and  _342
REMARK  135  A    between atoms: _341  and  _344
REMARK  136  A    between atoms: _344  and  _345
REMARK  137  A    between atoms: _348  and  _350
REMARK  138  A    between atoms: _350  and  _351
REMARK  139  A    between atoms: _350  and  _353
REMARK  140  A    between atoms: _353  and  _354
REMARK  141  A    between atoms: _354  and  _355
REMARK  142  A    between atoms: _358  and  _360
REMARK  143  A    between atoms: _360  and  _361
REMARK  144  A    between atoms: _360  and  _363
REMARK  145  A    between atoms: _363  and  _364
REMARK  146  A    between atoms: _369  and  _371
REMARK  147  A    between atoms: _371  and  _372
REMARK  148  A    between atoms: _374  and  _376
REMARK  149  A    between atoms: _376  and  _377
REMARK  150  A    between atoms: _376  and  _379
REMARK  151  A    between atoms: _382  and  _384
REMARK  152  A    between atoms: _384  and  _385
REMARK  153  A    between atoms: _388  and  _390
REMARK  154  A    between atoms: _390  and  _391
REMARK  155  A    between atoms: _390  and  _393
REMARK  156  A    between atoms: _393  and  _394
REMARK  157  A    between atoms: _399  and  _401
REMARK  158  A    between atoms: _401  and  _402
REMARK  159  A    between atoms: _401  and  _404
REMARK  160  A    between atoms: _404  and  _405
REMARK  161  A    between atoms: _405  and  _406
REMARK  162  A    between atoms: _406  and  _407
REMARK  163  A    between atoms: _407  and  _408
REMARK  164  A    between atoms: _412  and  _414
REMARK  165  A    between atoms: _414  and  _415
REMARK  166  A    between atoms: _414  and  _417
REMARK  167  A    between atoms: _417  and  _418
REMARK  168  A    between atoms: _423  and  _425
REMARK  169  A    between atoms: _425  and  _426
REMARK  170  A    between atoms: _428  and  _430
REMARK  171  A    between atoms: _430  and  _431
REMARK  172  A    between atoms: _430  and  _433
REMARK  173  A    between atoms: _433  and  _434
REMARK  174  A    between atoms: _434  and  _435
REMARK  175  A    between atoms: _435  and  _436
REMARK  176  A    between atoms: _436  and  _437
REMARK  177  A    between atoms: _441  and  _443
REMARK  178  A    between atoms: _443  and  _444
REMARK  179  A    between atoms: _443  and  _446
REMARK  180  A    between atoms: _446  and  _447
REMARK  181  A    between atoms: _447  and  _448
REMARK  182  A    between atoms: _448  and  _449
REMARK  183  A    between atoms: _458  and  _460
REMARK  184  A    between atoms: _460  and  _461
REMARK  185  A    between atoms: _460  and  _463
REMARK  186  A    between atoms: _463  and  _464
REMARK  187  A    between atoms: _469  and  _470
REMARK  188  A    between atoms: _472  and  _474
REMARK  189  A    between atoms: _474  and  _475
REMARK  190  A    between atoms: _474  and  _477
REMARK  191  A    between atoms: _477  and  _478
REMARK  192  A    between atoms: _478  and  _479
REMARK  193  A    between atoms: _479  and  _480
REMARK  194  A    between atoms: _480  and  _481
REMARK  195  A    between atoms: _485  and  _487
REMARK  196  A    between atoms: _487  and  _488
REMARK  197  A    between atoms: _487  and  _490
REMARK  198  A    between atoms: _490  and  _491
REMARK  199  A    between atoms: _494  and  _496
REMARK  200  A    between atoms: _496  and  _497
REMARK  201  A    between atoms: _496  and  _499
REMARK  202  A    between atoms: _499  and  _500
REMARK  203  A    between atoms: _500  and  _501
REMARK  204  A    between atoms: _504  and  _506
REMARK  205  A    between atoms: _506  and  _507
REMARK  206  A    between atoms: _510  and  _512
REMARK  207  A    between atoms: _512  and  _513
REMARK  208  A    between atoms: _512  and  _515
REMARK  209  A    between atoms: _515  and  _516
REMARK  210  A    between atoms: _518  and  _520
REMARK  211  A    between atoms: _520  and  _521
REMARK  212  A    between atoms: _523  and  _525
REMARK  213  A    between atoms: _525  and  _526
REMARK  214  A    between atoms: _525  and  _528
REMARK  215  A    between atoms: _528  and  _529
REMARK  216  A    between atoms: _532  and  _534
REMARK  217  A    between atoms: _534  and  _535
REMARK  218  A    between atoms: _537  and  _539
REMARK  219  A    between atoms: _539  and  _540
REMARK  220  A    between atoms: _539  and  _542
REMARK  221  A    between atoms: _542  and  _543
REMARK  222  A    between atoms: _548  and  _550
REMARK  223  A    between atoms: _550  and  _551
REMARK  224  A    between atoms: _550  and  _553
REMARK  225  A    between atoms: _553  and  _554
REMARK  226  A    between atoms: _554  and  _555
REMARK  227  A    between atoms: _562  and  _563
REMARK  228  A    between atoms: _563  and  _579
REMARK  229  A    between atoms: _564  and  _566
REMARK  230  A    between atoms: _566  and  _567
REMARK  231  A    between atoms: _567  and  _568
REMARK  232  A    between atoms: _572  and  _574
REMARK  233  A    between atoms: _574  and  _575
REMARK  234  A    between atoms: _574  and  _582
REMARK  235  A    between atoms: _575  and  _576
REMARK  236  A    between atoms: _576  and  _577
REMARK  237  A    between atoms: _577  and  _578
REMARK  238  A    between atoms: _578  and  _579
REMARK  239  A    between atoms: _584  and  _586
REMARK  240  A    between atoms: _586  and  _587
REMARK  241  A    between atoms: _586  and  _589
REMARK  242  A    between atoms: _589  and  _590
REMARK  243  A    between atoms: _593  and  _595
REMARK  244  A    between atoms: _595  and  _596
REMARK  245  A    between atoms: _598  and  _600
REMARK  246  A    between atoms: _600  and  _601
REMARK  247  A    between atoms: _604  and  _606
REMARK  248  A    between atoms: _606  and  _607
REMARK  249  A    between atoms: _606  and  _609
REMARK  250  A    between atoms: _609  and  _610
REMARK  251  A    between atoms: _615  and  _616
REMARK                            x       y       z     vdW  Elec       q    Type
REMARK                         _______ _______ _______ _____ _____    ______ ____
ROOT
ATOM      1  C   ASP A   4      36.158  29.819  31.881  0.00  0.00    +0.241 C 
ATOM      2  O   ASP A   4      36.237  31.016  31.613  0.00  0.00    -0.273 OA
ATOM      3  N   ASN A   5      36.832  28.906  31.207  0.00  0.00    -0.297 N 
ATOM      4  H   ASN A   5      36.635  27.899  31.374  0.00  0.00    +0.150 HD
ENDROOT
BRANCH   3   5
ATOM      5  CA  ASN A   5      37.862  29.291  30.219  0.00  0.00    +0.158 C 
BRANCH   5   6
ATOM      6  C   ASN A   5      38.778  30.528  30.500  0.00  0.00    +0.241 C 
ATOM      7  N   PHE A   6      39.064  30.833  31.774  0.00  0.00    -0.297 N 
ATOM      8  H   PHE A   6      38.504  30.399  32.535  0.00  0.00    +0.150 HD
ATOM      9  O   ASN A   5      39.232  31.183  29.559  0.00  0.00    -0.273 OA
BRANCH   7  10
ATOM     10  CA  PHE A   6      40.157  31.772  32.129  0.00  0.00    +0.153 C 
BRANCH  10  11
ATOM     11  C   PHE A   6      40.835  31.523  33.493  0.00  0.00    +0.241 C 
ATOM     12  O   PHE A   6      40.264  31.819  34.550  0.00  0.00    -0.273 OA
ATOM     13  N   PHE A   7      42.071  31.030  33.461  0.00  0.00    -0.297 N 
ATOM     14  H   PHE A   7      42.562  30.939  32.549  0.00  0.00    +0.150 HD
BRANCH  13  15
ATOM     15  CA  PHE A   7      42.747  30.616  34.683  0.00  0.00    +0.153 C 
BRANCH  15  16
ATOM     16  C   PHE A   7      43.238  31.784  35.542  0.00  0.00    +0.241 C 
ATOM     17  N   GLU A   8      42.800  31.803  36.801  0.00  0.00    -0.298 N 
ATOM     18  H   GLU A   8      42.011  31.179  37.065  0.00  0.00    +0.150 HD
ATOM     19  O   PHE A   7      43.995  32.637  35.073  0.00  0.00    -0.273 OA
BRANCH  17  20
ATOM     20  CA  GLU A   8      43.387  32.669  37.828  0.00  0.00    +0.137 C 
BRANCH  20  21
ATOM     21  C   GLU A   8      44.029  31.815  38.922  0.00  0.00    +0.227 C 
ATOM     22  O   GLU A   8      43.387  30.922  39.487  0.00  0.00    -0.286 OA
ENDBRANCH  20  21
BRANCH  20  23
ATOM     23  CB  GLU A   8      42.326  33.601  38.430  0.00  0.00    +0.039 C 
BRANCH  23  24
ATOM     24  CG  GLU A   8      42.109  34.879  37.633  0.00  0.00    +0.116 C 
BRANCH  24  25
ATOM     25  CD  GLU A   8      40.667  35.367  37.667  0.00  0.00    +0.365 C 
ATOM     26  OE2 GLU A   8      40.005  35.258  38.730  0.00  0.00    -0.246 OA
ATOM     27  OE1 GLU A   8      40.191  35.860  36.621  0.00  0.00    -0.246 OA
ENDBRANCH  24  25
ENDBRANCH  23  24
ENDBRANCH  20  23
ENDBRANCH  17  20
ENDBRANCH  15  16
BRANCH  15  28
ATOM     28  CB  PHE A   7      43.911  29.662  34.366  0.00  0.00    +0.055 C 
BRANCH  28  29
ATOM     29  CG  PHE A   7      44.753  29.306  35.568  0.00  0.00    -0.020 A 
ATOM     30  CD2 PHE A   7      44.242  28.492  36.579  0.00  0.00    -0.004 A 
ATOM     31  CE2 PHE A   7      45.020  28.168  37.694  0.00  0.00    -0.000 A 
ATOM     32  CZ  PHE A   7      46.307  28.659  37.796  0.00  0.00    -0.000 A 
ATOM     33  CE1 PHE A   7      46.825  29.476  36.796  0.00  0.00    -0.000 A 
ATOM     34  CD1 PHE A   7      46.049  29.799  35.694  0.00  0.00    -0.004 A 
ENDBRANCH  28  29
ENDBRANCH  15  28
ENDBRANCH  13  15
ENDBRANCH  10  11
BRANCH  10  35
ATOM     35  CB  PHE A   6      39.739  33.244  32.036  0.00  0.00    +0.055 C 
BRANCH  35  36
ATOM     36  CG  PHE A   6      40.869  34.197  32.321  0.00  0.00    -0.020 A 
ATOM     37  CD2 PHE A   6      40.994  34.802  33.575  0.00  0.00    -0.004 A 
ATOM     38  CE2 PHE A   6      42.060  35.662  33.856  0.00  0.00    -0.000 A 
ATOM     39  CZ  PHE A   6      43.023  35.923  32.873  0.00  0.00    -0.000 A 
ATOM     40  CE1 PHE A   6      42.911  35.318  31.617  0.00  0.00    -0.000 A 
ATOM     41  CD1 PHE A   6      41.838  34.455  31.353  0.00  0.00    -0.004 A 
ENDBRANCH  35  36
ENDBRANCH  10  35
ENDBRANCH   7  10
ENDBRANCH   5   6
BRANCH   5  42
ATOM     42  CB  ASN A   5      37.254  29.322  28.802  0.00  0.00    +0.114 C 
BRANCH  42  43
ATOM     43  CG  ASN A   5      36.784  27.945  28.341  0.00  0.00    +0.222 C 
ATOM     44  ND2 ASN A   5      35.464  27.727  28.351  0.00  0.00    -0.329 N 
ATOM     45 HD21 ASN A   5      34.815  28.480  28.657  0.00  0.00    +0.145 HD
ATOM     46 HD22 ASN A   5      35.087  26.805  28.053  0.00  0.00    +0.145 HD
ATOM     47  OD1 ASN A   5      37.601  27.084  27.986  0.00  0.00    -0.275 OA
ENDBRANCH  42  43
ENDBRANCH   5  42
ENDBRANCH   3   5
BRANCH   1  48
ATOM     48  CA  ASP A   4      35.295  29.335  33.047  0.00  0.00    +0.160 C 
BRANCH  48  51
ATOM     49  C   ASN A   3      35.656  30.522  35.133  0.00  0.00    +0.241 C 
ATOM     50  O   ASN A   3      36.278  29.587  35.641  0.00  0.00    -0.273 OA
ATOM     51  N   ASP A   4      35.067  30.452  33.946  0.00  0.00    -0.297 N 
ATOM     52  H   ASP A   4      34.426  31.216  33.652  0.00  0.00    +0.150 HD
BRANCH  49  53
ATOM     53  CA  ASN A   3      35.475  31.823  35.882  0.00  0.00    +0.158 C 
BRANCH  53  55
ATOM     54  C   PRO A   2      33.388  31.667  37.081  0.00  0.00    +0.241 C 
ATOM     55  N   ASN A   3      34.712  31.589  37.107  0.00  0.00    -0.297 N 
ATOM     56  H   ASN A   3      35.205  31.363  37.994  0.00  0.00    +0.150 HD
ATOM     57  O   PRO A   2      32.767  31.996  36.070  0.00  0.00    -0.273 OA
BRANCH  54  63
ATOM     58  C   TYR A   1      33.981  30.011  39.940  0.00  0.00    +0.242 C 
ATOM     59  N   PRO A   2      33.461  31.199  39.574  0.00  0.00    -0.272 N 
ATOM     60  CD  PRO A   2      33.611  32.462  40.327  0.00  0.00    +0.094 C 
ATOM     61  CG  PRO A   2      32.727  33.437  39.577  0.00  0.00    +0.024 C 
ATOM     62  CB  PRO A   2      31.782  32.597  38.748  0.00  0.00    +0.031 C 
ATOM     63  CA  PRO A   2      32.627  31.380  38.381  0.00  0.00    +0.152 C 
ATOM     64  O   TYR A   1      33.843  28.986  39.268  0.00  0.00    -0.273 OA
BRANCH  58  65
ATOM     65  CA  TYR A   1      34.736  29.957  41.275  0.00  0.00    +0.149 C 
BRANCH  65  66
ATOM     66  N   TYR A   1      34.105  28.979  42.174  0.00  0.00    -0.238 NA
ATOM     67  H   TYR A   1      34.641  28.133  42.455  0.00  0.00    +0.142 HD
ENDBRANCH  65  66
BRANCH  65  68
ATOM     68  CB  TYR A   1      36.220  29.635  41.064  0.00  0.00    +0.053 C 
BRANCH  68  69
ATOM     69  CG  TYR A   1      37.088  30.173  42.174  0.00  0.00    -0.020 A 
ATOM     70  CD2 TYR A   1      37.238  29.477  43.376  0.00  0.00    -0.001 A 
ATOM     71  CE2 TYR A   1      38.031  29.987  44.412  0.00  0.00    +0.036 A 
ATOM     72  CZ  TYR A   1      38.662  31.212  44.241  0.00  0.00    +0.134 A 
ATOM     73  CE1 TYR A   1      38.515  31.918  43.061  0.00  0.00    +0.036 A 
ATOM     74  CD1 TYR A   1      37.730  31.395  42.035  0.00  0.00    -0.001 A 
BRANCH  72  75
ATOM     75  OH  TYR A   1      39.445  31.741  45.239  0.00  0.00    -0.506 OA
ATOM     76  HH  TYR A   1      39.077  32.617  45.516  0.00  0.00    +0.292 HD
ENDBRANCH  72  75
ENDBRANCH  68  69
ENDBRANCH  65  68
ENDBRANCH  58  65
ENDBRANCH  54  63
ENDBRANCH  53  55
BRANCH  53  77
ATOM     77  CB  ASN A   3      36.824  32.521  36.135  0.00  0.00    +0.114 C 
BRANCH  77  78
ATOM     78  CG  ASN A   3      37.620  31.887  37.268  0.00  0.00    +0.222 C 
ATOM     79  OD1 ASN A   3      37.254  32.014  38.435  0.00  0.00    -0.275 OA
ATOM     80  ND2 ASN A   3      38.728  31.217  36.928  0.00  0.00    -0.329 N 
ATOM     81 HD21 ASN A   3      39.317  30.779  37.664  0.00  0.00    +0.145 HD
ATOM     82 HD22 ASN A   3      39.000  31.135  35.927  0.00  0.00    +0.145 HD
ENDBRANCH  77  78
ENDBRANCH  53  77
ENDBRANCH  49  53
ENDBRANCH  48  51
BRANCH  48  83
ATOM     83  CB  ASP A   4      33.969  28.755  32.573  0.00  0.00    +0.143 C 
BRANCH  83  84
ATOM     84  CG  ASP A   4      33.094  29.774  31.876  0.00  0.00    +0.367 C 
ATOM     85  OD2 ASP A   4      33.309  30.999  32.025  0.00  0.00    -0.246 OA
ATOM     86  OD1 ASP A   4      32.177  29.338  31.166  0.00  0.00    -0.246 OA
ENDBRANCH  83  84
ENDBRANCH  48  83
ENDBRANCH   1  48
TORSDOF 31
REMARK  Name = ../refined-set-2016/3l7d/3l7d_pocket.pdb
REMARK  251 active torsions:
REMARK  status: ('A' for Active; 'I' for Inactive)
REMARK    1  A    between atoms: _1  and  _3
REMARK    2  A    between atoms: _3  and  _4
REMARK    3  A    between atoms: _3  and  _6
REMARK    4  A    between atoms: _6  and  _7
REMARK    5  A    between atoms: _12  and  _13
REMARK    6  A    between atoms: _15  and  _17
REMARK    7  A    between atoms: _17  and  _18
REMARK    8  A    between atoms: _17  and  _20
REMARK    9  A    between atoms: _20  and  _21
REMARK   10  A    between atoms: _24  and  _26
REMARK   11  A    between atoms: _26  and  _27
REMARK   12  A    between atoms: _26  and  _29
REMARK   13  A    between atoms: _29  and  _30
REMARK   14  A    between atoms: _30  and  _31
REMARK   15  A    between atoms: _34  and  _36
REMARK   16  A    between atoms: _36  and  _37
REMARK   17  A    between atoms: _36  and  _39
REMARK   18  A    between atoms: _39  and  _40
REMARK   19  A    between atoms: _45  and  _47
REMARK   20  A    between atoms: _47  and  _48
REMARK   21  A    between atoms: _50  and  _52
REMARK   22  A    between atoms: _52  and  _53
REMARK   23  A    between atoms: _55  and  _57
REMARK   24  A    between atoms: _57  and  _58
REMARK   25  A    between atoms: _57  and  _60
REMARK   26  A    between atoms: _60  and  _61
REMARK   27  A    between atoms: _64  and  _66
REMARK   28  A    between atoms: _66  and  _67
REMARK   29  A    between atoms: _69  and  _71
REMARK   30  A    between atoms: _71  and  _72
REMARK   31  A    between atoms: _71  and  _74
REMARK   32  A    between atoms: _74  and  _75
REMARK   33  A    between atoms: _75  and  _76
REMARK   34  A    between atoms: _76  and  _77
REMARK   35  A    between atoms: _86  and  _88
REMARK   36  A    between atoms: _88  and  _89
REMARK   37  A    between atoms: _88  and  _91
REMARK   38  A    between atoms: _91  and  _92
REMARK   39  A    between atoms: _95  and  _97
REMARK   40  A    between atoms: _97  and  _98
REMARK   41  A    between atoms: _101  and  _103
REMARK   42  A    between atoms: _103  and  _104
REMARK   43  A    between atoms: _103  and  _106
REMARK   44  A    between atoms: _106  and  _107
REMARK   45  A    between atoms: _113  and  _115
REMARK   46  A    between atoms: _115  and  _116
REMARK   47  A    between atoms: _115  and  _118
REMARK   48  A    between atoms: _118  and  _119
REMARK   49  A    between atoms: _124  and  _125
REMARK   50  A    between atoms: _128  and  _129
REMARK   51  A    between atoms: _134  and  _136
REMARK   52  A    between atoms: _136  and  _137
REMARK   53  A    between atoms: _136  and  _139
REMARK   54  A    between atoms: _139  and  _140
REMARK   55  A    between atoms: _145  and  _147
REMARK   56  A    between atoms: _147  and  _148
REMARK   57  A    between atoms: _147  and  _150
REMARK   58  A    between atoms: _150  and  _151
REMARK   59  A    between atoms: _154  and  _156
REMARK   60  A    between atoms: _156  and  _157
REMARK   61  A    between atoms: _156  and  _159
REMARK   62  A    between atoms: _159  and  _160
REMARK   63  A    between atoms: _165  and  _167
REMARK   64  A    between atoms: _167  and  _168
REMARK   65  A    between atoms: _167  and  _170
REMARK   66  A    between atoms: _170  and  _171
REMARK   67  A    between atoms: _177  and  _179
REMARK   68  A    between atoms: _179  and  _180
REMARK   69  A    between atoms: _179  and  _182
REMARK   70  A    between atoms: _182  and  _183
REMARK   71  A    between atoms: _189  and  _191
REMARK   72  A    between atoms: _191  and  _192
REMARK   73  A    between atoms: _191  and  _194
REMARK   74  A    between atoms: _194  and  _195
REMARK   75  A    between atoms: _195  and  _196
REMARK   76  A    between atoms: _199  and  _201
REMARK   77  A    between atoms: _201  and  _202
REMARK   78  A    between atoms: _201  and  _204
REMARK   79  A    between atoms: _204  and  _205
REMARK   80  A    between atoms: _205  and  _206
REMARK   81  A    between atoms: _206  and  _207
REMARK   82  A    between atoms: _216  and  _218
REMARK   83  A    between atoms: _218  and  _219
REMARK   84  A    between atoms: _218  and  _221
REMARK   85  A    between atoms: _221  and  _222
REMARK   86  A    between atoms: _222  and  _223
REMARK   87  A    between atoms: _226  and  _228
REMARK   88  A    between atoms: _228  and  _229
REMARK   89  A    between atoms: _228  and  _231
REMARK   90  A    between atoms: _231  and  _232
REMARK   91  A    between atoms: _237  and  _239
REMARK   92  A    between atoms: _239  and  _240
REMARK   93  A    between atoms: _239  and  _242
REMARK   94  A    between atoms: _242  and  _243
REMARK   95  A    between atoms: _246  and  _248
REMARK   96  A    between atoms: _248  and  _249
REMARK   97  A    between atoms: _248  and  _251
REMARK   98  A    between atoms: _251  and  _252
REMARK   99  A    between atoms: _255  and  _257
REMARK  100  A    between atoms: _257  and  _258
REMARK  101  A    between atoms: _257  and  _260
REMARK  102  A    between atoms: _260  and  _261
REMARK  103  A    between atoms: _266  and  _268
REMARK  104  A    between atoms: _268  and  _269
REMARK  105  A    between atoms: _268  and  _271
REMARK  106  A    between atoms: _271  and  _272
REMARK  107  A    between atoms: _275  and  _277
REMARK  108  A    between atoms: _277  and  _278
REMARK  109  A    between atoms: _277  and  _280
REMARK  110  A    between atoms: _280  and  _281
REMARK  111  A    between atoms: _286  and  _288
REMARK  112  A    between atoms: _288  and  _289
REMARK  113  A    between atoms: _288  and  _291
REMARK  114  A    between atoms: _291  and  _292
REMARK  115  A    between atoms: _297  and  _299
REMARK  116  A    between atoms: _299  and  _300
REMARK  117  A    between atoms: _299  and  _302
REMARK  118  A    between atoms: _302  and  _303
REMARK  119  A    between atoms: _306  and  _308
REMARK  120  A    between atoms: _308  and  _309
REMARK  121  A    between atoms: _308  and  _311
REMARK  122  A    between atoms: _314  and  _316
REMARK  123  A    between atoms: _316  and  _317
REMARK  124  A    between atoms: _316  and  _319
REMARK  125  A    between atoms: _319  and  _320
REMARK  126  A    between atoms: _323  and  _325
REMARK  127  A    between atoms: _325  and  _326
REMARK  128  A    between atoms: _325  and  _328
REMARK  129  A    between atoms: _328  and  _329
REMARK  130  A    between atoms: _329  and  _330
REMARK  131  A    between atoms: _333  and  _335
REMARK  132  A    between atoms: _335  and  _336
REMARK  133  A    between atoms: _339  and  _341
REMARK  134  A    between atoms: _341  and  _342
REMARK  135  A    between atoms: _341  and  _344
REMARK  136  A    between atoms: _344  and  _345
REMARK  137  A    between atoms: _348  and  _350
REMARK  138  A    between atoms: _350  and  _351
REMARK  139  A    between atoms: _350  and  _353
REMARK  140  A    between atoms: _353  and  _354
REMARK  141  A    between atoms: _354  and  _355
REMARK  142  A    between atoms: _358  and  _360
REMARK  143  A    between atoms: _360  and  _361
REMARK  144  A    between atoms: _360  and  _363
REMARK  145  A    between atoms: _363  and  _364
REMARK  146  A    between atoms: _369  and  _371
REMARK  147  A    between atoms: _371  and  _372
REMARK  148  A    between atoms: _374  and  _376
REMARK  149  A    between atoms: _376  and  _377
REMARK  150  A    between atoms: _376  and  _379
REMARK  151  A    between atoms: _382  and  _384
REMARK  152  A    between atoms: _384  and  _385
REMARK  153  A    between atoms: _388  and  _390
REMARK  154  A    between atoms: _390  and  _391
REMARK  155  A    between atoms: _390  and  _393
REMARK  156  A    between atoms: _393  and  _394
REMARK  157  A    between atoms: _399  and  _401
REMARK  158  A    between atoms: _401  and  _402
REMARK  159  A    between atoms: _401  and  _404
REMARK  160  A    between atoms: _404  and  _405
REMARK  161  A    between atoms: _405  and  _406
REMARK  162  A    between atoms: _406  and  _407
REMARK  163  A    between atoms: _407  and  _408
REMARK  164  A    between atoms: _412  and  _414
REMARK  165  A    between atoms: _414  and  _415
REMARK  166  A    between atoms: _414  and  _417
REMARK  167  A    between atoms: _417  and  _418
REMARK  168  A    between atoms: _423  and  _425
REMARK  169  A    between atoms: _425  and  _426
REMARK  170  A    between atoms: _428  and  _430
REMARK  171  A    between atoms: _430  and  _431
REMARK  172  A    between atoms: _430  and  _433
REMARK  173  A    between atoms: _433  and  _434
REMARK  174  A    between atoms: _434  and  _435
REMARK  175  A    between atoms: _435  and  _436
REMARK  176  A    between atoms: _436  and  _437
REMARK  177  A    between atoms: _441  and  _443
REMARK  178  A    between atoms: _443  and  _444
REMARK  179  A    between atoms: _443  and  _446
REMARK  180  A    between atoms: _446  and  _447
REMARK  181  A    between atoms: _447  and  _448
REMARK  182  A    between atoms: _448  and  _449
REMARK  183  A    between atoms: _458  and  _460
REMARK  184  A    between atoms: _460  and  _461
REMARK  185  A    between atoms: _460  and  _463
REMARK  186  A    between atoms: _463  and  _464
REMARK  187  A    between atoms: _469  and  _470
REMARK  188  A    between atoms: _472  and  _474
REMARK  189  A    between atoms: _474  and  _475
REMARK  190  A    between atoms: _474  and  _477
REMARK  191  A    between atoms: _477  and  _478
REMARK  192  A    between atoms: _478  and  _479
REMARK  193  A    between atoms: _479  and  _480
REMARK  194  A    between atoms: _480  and  _481
REMARK  195  A    between atoms: _485  and  _487
REMARK  196  A    between atoms: _487  and  _488
REMARK  197  A    between atoms: _487  and  _490
REMARK  198  A    between atoms: _490  and  _491
REMARK  199  A    between atoms: _494  and  _496
REMARK  200  A    between atoms: _496  and  _497
REMARK  201  A    between atoms: _496  and  _499
REMARK  202  A    between atoms: _499  and  _500
REMARK  203  A    between atoms: _500  and  _501
REMARK  204  A    between atoms: _504  and  _506
REMARK  205  A    between atoms: _506  and  _507
REMARK  206  A    between atoms: _510  and  _512
REMARK  207  A    between atoms: _512  and  _513
REMARK  208  A    between atoms: _512  and  _515
REMARK  209  A    between atoms: _515  and  _516
REMARK  210  A    between atoms: _518  and  _520
REMARK  211  A    between atoms: _520  and  _521
REMARK  212  A    between atoms: _523  and  _525
REMARK  213  A    between atoms: _525  and  _526
REMARK  214  A    between atoms: _525  and  _528
REMARK  215  A    between atoms: _528  and  _529
REMARK  216  A    between atoms: _532  and  _534
REMARK  217  A    between atoms: _534  and  _535
REMARK  218  A    between atoms: _537  and  _539
REMARK  219  A    between atoms: _539  and  _540
REMARK  220  A    between atoms: _539  and  _542
REMARK  221  A    between atoms: _542  and  _543
REMARK  222  A    between atoms: _548  and  _550
REMARK  223  A    between atoms: _550  and  _551
REMARK  224  A    between atoms: _550  and  _553
REMARK  225  A    between atoms: _553  and  _554
REMARK  226  A    between atoms: _554  and  _555
REMARK  227  A    between atoms: _562  and  _563
REMARK  228  A    between atoms: _563  and  _579
REMARK  229  A    between atoms: _564  and  _566
REMARK  230  A    between atoms: _566  and  _567
REMARK  231  A    between atoms: _567  and  _568
REMARK  232  A    between atoms: _572  and  _574
REMARK  233  A    between atoms: _574  and  _575
REMARK  234  A    between atoms: _574  and  _582
REMARK  235  A    between atoms: _575  and  _576
REMARK  236  A    between atoms: _576  and  _577
REMARK  237  A    between atoms: _577  and  _578
REMARK  238  A    between atoms: _578  and  _579
REMARK  239  A    between atoms: _584  and  _586
REMARK  240  A    between atoms: _586  and  _587
REMARK  241  A    between atoms: _586  and  _589
REMARK  242  A    between atoms: _589  and  _590
REMARK  243  A    between atoms: _593  and  _595
REMARK  244  A    between atoms: _595  and  _596
REMARK  245  A    between atoms: _598  and  _600
REMARK  246  A    between atoms: _600  and  _601
REMARK  247  A    between atoms: _604  and  _606
REMARK  248  A    between atoms: _606  and  _607
REMARK  249  A    between atoms: _606  and  _609
REMARK  250  A    between atoms: _609  and  _610
REMARK  251  A    between atoms: _615  and  _616
REMARK                            x       y       z     vdW  Elec       q    Type
REMARK                         _______ _______ _______ _____ _____    ______ ____
ROOT
ATOM      1  NE  ARG A   1      39.614  25.783  40.599  0.00  0.00    -0.265 N 
ATOM      2  HE  ARG A   1      40.522  25.495  40.182  0.00  0.00    +0.259 HD
ATOM      3  CZ  ARG A   1      38.508  25.368  39.987  0.00  0.00    +0.342 C 
ATOM      4  NH2 ARG A   1      37.298  25.669  40.461  0.00  0.00    -0.292 N 
ATOM      5 HH21 ARG A   1      37.205  26.239  41.326  0.00  0.00    +0.255 HD
ATOM      6 HH22 ARG A   1      36.447  25.334  39.966  0.00  0.00    +0.255 HD
ATOM      7  NH1 ARG A   1      38.620  24.629  38.888  0.00  0.00    -0.292 N 
ATOM      8 HH11 ARG A   1      39.561  24.384  38.520  0.00  0.00    +0.255 HD
ATOM      9 HH12 ARG A   1      37.766  24.296  38.396  0.00  0.00    +0.255 HD
ENDROOT
BRANCH   1  10
ATOM     10  CD  ARG A   1      39.666  26.610  41.809  0.00  0.00    +0.174 C 
BRANCH  10  11
ATOM     11  CG  ARG A   1      41.012  27.343  41.875  0.00  0.00    +0.045 C 
BRANCH  11  12
ATOM     12  CB  ARG A   1      41.161  28.313  43.062  0.00  0.00    +0.029 C 
BRANCH  12  13
ATOM     13  CA  ARG A   1      41.133  27.678  44.449  0.00  0.00    +0.133 C 
BRANCH  13  14
ATOM     14  N   ARG A   1      41.446  28.678  45.478  0.00  0.00    -0.239 NA
ATOM     15  H   ARG A   1      41.778  29.621  45.190  0.00  0.00    +0.142 HD
ENDBRANCH  13  14
BRANCH  13  16
ATOM     16  C   ARG A   1      42.066  26.465  44.524  0.00  0.00    +0.224 C 
ATOM     17  O   ARG A   1      41.628  25.323  44.388  0.00  0.00    -0.287 OA
ENDBRANCH  13  16
ENDBRANCH  12  13
ENDBRANCH  11  12
ENDBRANCH  10  11
ENDBRANCH   1  10
TORSDOF 6
REMARK  Name = ../refined-set-2016/3l7d/3l7d_pocket.pdb
REMARK  251 active torsions:
REMARK  status: ('A' for Active; 'I' for Inactive)
REMARK    1  A    between atoms: _1  and  _3
REMARK    2  A    between atoms: _3  and  _4
REMARK    3  A    between atoms: _3  and  _6
REMARK    4  A    between atoms: _6  and  _7
REMARK    5  A    between atoms: _12  and  _13
REMARK    6  A    between atoms: _15  and  _17
REMARK    7  A    between atoms: _17  and  _18
REMARK    8  A    between atoms: _17  and  _20
REMARK    9  A    between atoms: _20  and  _21
REMARK   10  A    between atoms: _24  and  _26
REMARK   11  A    between atoms: _26  and  _27
REMARK   12  A    between atoms: _26  and  _29
REMARK   13  A    between atoms: _29  and  _30
REMARK   14  A    between atoms: _30  and  _31
REMARK   15  A    between atoms: _34  and  _36
REMARK   16  A    between atoms: _36  and  _37
REMARK   17  A    between atoms: _36  and  _39
REMARK   18  A    between atoms: _39  and  _40
REMARK   19  A    between atoms: _45  and  _47
REMARK   20  A    between atoms: _47  and  _48
REMARK   21  A    between atoms: _50  and  _52
REMARK   22  A    between atoms: _52  and  _53
REMARK   23  A    between atoms: _55  and  _57
REMARK   24  A    between atoms: _57  and  _58
REMARK   25  A    between atoms: _57  and  _60
REMARK   26  A    between atoms: _60  and  _61
REMARK   27  A    between atoms: _64  and  _66
REMARK   28  A    between atoms: _66  and  _67
REMARK   29  A    between atoms: _69  and  _71
REMARK   30  A    between atoms: _71  and  _72
REMARK   31  A    between atoms: _71  and  _74
REMARK   32  A    between atoms: _74  and  _75
REMARK   33  A    between atoms: _75  and  _76
REMARK   34  A    between atoms: _76  and  _77
REMARK   35  A    between atoms: _86  and  _88
REMARK   36  A    between atoms: _88  and  _89
REMARK   37  A    between atoms: _88  and  _91
REMARK   38  A    between atoms: _91  and  _92
REMARK   39  A    between atoms: _95  and  _97
REMARK   40  A    between atoms: _97  and  _98
REMARK   41  A    between atoms: _101  and  _103
REMARK   42  A    between atoms: _103  and  _104
REMARK   43  A    between atoms: _103  and  _106
REMARK   44  A    between atoms: _106  and  _107
REMARK   45  A    between atoms: _113  and  _115
REMARK   46  A    between atoms: _115  and  _116
REMARK   47  A    between atoms: _115  and  _118
REMARK   48  A    between atoms: _118  and  _119
REMARK   49  A    between atoms: _124  and  _125
REMARK   50  A    between atoms: _128  and  _129
REMARK   51  A    between atoms: _134  and  _136
REMARK   52  A    between atoms: _136  and  _137
REMARK   53  A    between atoms: _136  and  _139
REMARK   54  A    between atoms: _139  and  _140
REMARK   55  A    between atoms: _145  and  _147
REMARK   56  A    between atoms: _147  and  _148
REMARK   57  A    between atoms: _147  and  _150
REMARK   58  A    between atoms: _150  and  _151
REMARK   59  A    between atoms: _154  and  _156
REMARK   60  A    between atoms: _156  and  _157
REMARK   61  A    between atoms: _156  and  _159
REMARK   62  A    between atoms: _159  and  _160
REMARK   63  A    between atoms: _165  and  _167
REMARK   64  A    between atoms: _167  and  _168
REMARK   65  A    between atoms: _167  and  _170
REMARK   66  A    between atoms: _170  and  _171
REMARK   67  A    between atoms: _177  and  _179
REMARK   68  A    between atoms: _179  and  _180
REMARK   69  A    between atoms: _179  and  _182
REMARK   70  A    between atoms: _182  and  _183
REMARK   71  A    between atoms: _189  and  _191
REMARK   72  A    between atoms: _191  and  _192
REMARK   73  A    between atoms: _191  and  _194
REMARK   74  A    between atoms: _194  and  _195
REMARK   75  A    between atoms: _195  and  _196
REMARK   76  A    between atoms: _199  and  _201
REMARK   77  A    between atoms: _201  and  _202
REMARK   78  A    between atoms: _201  and  _204
REMARK   79  A    between atoms: _204  and  _205
REMARK   80  A    between atoms: _205  and  _206
REMARK   81  A    between atoms: _206  and  _207
REMARK   82  A    between atoms: _216  and  _218
REMARK   83  A    between atoms: _218  and  _219
REMARK   84  A    between atoms: _218  and  _221
REMARK   85  A    between atoms: _221  and  _222
REMARK   86  A    between atoms: _222  and  _223
REMARK   87  A    between atoms: _226  and  _228
REMARK   88  A    between atoms: _228  and  _229
REMARK   89  A    between atoms: _228  and  _231
REMARK   90  A    between atoms: _231  and  _232
REMARK   91  A    between atoms: _237  and  _239
REMARK   92  A    between atoms: _239  and  _240
REMARK   93  A    between atoms: _239  and  _242
REMARK   94  A    between atoms: _242  and  _243
REMARK   95  A    between atoms: _246  and  _248
REMARK   96  A    between atoms: _248  and  _249
REMARK   97  A    between atoms: _248  and  _251
REMARK   98  A    between atoms: _251  and  _252
REMARK   99  A    between atoms: _255  and  _257
REMARK  100  A    between atoms: _257  and  _258
REMARK  101  A    between atoms: _257  and  _260
REMARK  102  A    between atoms: _260  and  _261
REMARK  103  A    between atoms: _266  and  _268
REMARK  104  A    between atoms: _268  and  _269
REMARK  105  A    between atoms: _268  and  _271
REMARK  106  A    between atoms: _271  and  _272
REMARK  107  A    between atoms: _275  and  _277
REMARK  108  A    between atoms: _277  and  _278
REMARK  109  A    between atoms: _277  and  _280
REMARK  110  A    between atoms: _280  and  _281
REMARK  111  A    between atoms: _286  and  _288
REMARK  112  A    between atoms: _288  and  _289
REMARK  113  A    between atoms: _288  and  _291
REMARK  114  A    between atoms: _291  and  _292
REMARK  115  A    between atoms: _297  and  _299
REMARK  116  A    between atoms: _299  and  _300
REMARK  117  A    between atoms: _299  and  _302
REMARK  118  A    between atoms: _302  and  _303
REMARK  119  A    between atoms: _306  and  _308
REMARK  120  A    between atoms: _308  and  _309
REMARK  121  A    between atoms: _308  and  _311
REMARK  122  A    between atoms: _314  and  _316
REMARK  123  A    between atoms: _316  and  _317
REMARK  124  A    between atoms: _316  and  _319
REMARK  125  A    between atoms: _319  and  _320
REMARK  126  A    between atoms: _323  and  _325
REMARK  127  A    between atoms: _325  and  _326
REMARK  128  A    between atoms: _325  and  _328
REMARK  129  A    between atoms: _328  and  _329
REMARK  130  A    between atoms: _329  and  _330
REMARK  131  A    between atoms: _333  and  _335
REMARK  132  A    between atoms: _335  and  _336
REMARK  133  A    between atoms: _339  and  _341
REMARK  134  A    between atoms: _341  and  _342
REMARK  135  A    between atoms: _341  and  _344
REMARK  136  A    between atoms: _344  and  _345
REMARK  137  A    between atoms: _348  and  _350
REMARK  138  A    between atoms: _350  and  _351
REMARK  139  A    between atoms: _350  and  _353
REMARK  140  A    between atoms: _353  and  _354
REMARK  141  A    between atoms: _354  and  _355
REMARK  142  A    between atoms: _358  and  _360
REMARK  143  A    between atoms: _360  and  _361
REMARK  144  A    between atoms: _360  and  _363
REMARK  145  A    between atoms: _363  and  _364
REMARK  146  A    between atoms: _369  and  _371
REMARK  147  A    between atoms: _371  and  _372
REMARK  148  A    between atoms: _374  and  _376
REMARK  149  A    between atoms: _376  and  _377
REMARK  150  A    between atoms: _376  and  _379
REMARK  151  A    between atoms: _382  and  _384
REMARK  152  A    between atoms: _384  and  _385
REMARK  153  A    between atoms: _388  and  _390
REMARK  154  A    between atoms: _390  and  _391
REMARK  155  A    between atoms: _390  and  _393
REMARK  156  A    between atoms: _393  and  _394
REMARK  157  A    between atoms: _399  and  _401
REMARK  158  A    between atoms: _401  and  _402
REMARK  159  A    between atoms: _401  and  _404
REMARK  160  A    between atoms: _404  and  _405
REMARK  161  A    between atoms: _405  and  _406
REMARK  162  A    between atoms: _406  and  _407
REMARK  163  A    between atoms: _407  and  _408
REMARK  164  A    between atoms: _412  and  _414
REMARK  165  A    between atoms: _414  and  _415
REMARK  166  A    between atoms: _414  and  _417
REMARK  167  A    between atoms: _417  and  _418
REMARK  168  A    between atoms: _423  and  _425
REMARK  169  A    between atoms: _425  and  _426
REMARK  170  A    between atoms: _428  and  _430
REMARK  171  A    between atoms: _430  and  _431
REMARK  172  A    between atoms: _430  and  _433
REMARK  173  A    between atoms: _433  and  _434
REMARK  174  A    between atoms: _434  and  _435
REMARK  175  A    between atoms: _435  and  _436
REMARK  176  A    between atoms: _436  and  _437
REMARK  177  A    between atoms: _441  and  _443
REMARK  178  A    between atoms: _443  and  _444
REMARK  179  A    between atoms: _443  and  _446
REMARK  180  A    between atoms: _446  and  _447
REMARK  181  A    between atoms: _447  and  _448
REMARK  182  A    between atoms: _448  and  _449
REMARK  183  A    between atoms: _458  and  _460
REMARK  184  A    between atoms: _460  and  _461
REMARK  185  A    between atoms: _460  and  _463
REMARK  186  A    between atoms: _463  and  _464
REMARK  187  A    between atoms: _469  and  _470
REMARK  188  A    between atoms: _472  and  _474
REMARK  189  A    between atoms: _474  and  _475
REMARK  190  A    between atoms: _474  and  _477
REMARK  191  A    between atoms: _477  and  _478
REMARK  192  A    between atoms: _478  and  _479
REMARK  193  A    between atoms: _479  and  _480
REMARK  194  A    between atoms: _480  and  _481
REMARK  195  A    between atoms: _485  and  _487
REMARK  196  A    between atoms: _487  and  _488
REMARK  197  A    between atoms: _487  and  _490
REMARK  198  A    between atoms: _490  and  _491
REMARK  199  A    between atoms: _494  and  _496
REMARK  200  A    between atoms: _496  and  _497
REMARK  201  A    between atoms: _496  and  _499
REMARK  202  A    between atoms: _499  and  _500
REMARK  203  A    between atoms: _500  and  _501
REMARK  204  A    between atoms: _504  and  _506
REMARK  205  A    between atoms: _506  and  _507
REMARK  206  A    between atoms: _510  and  _512
REMARK  207  A    between atoms: _512  and  _513
REMARK  208  A    between atoms: _512  and  _515
REMARK  209  A    between atoms: _515  and  _516
REMARK  210  A    between atoms: _518  and  _520
REMARK  211  A    between atoms: _520  and  _521
REMARK  212  A    between atoms: _523  and  _525
REMARK  213  A    between atoms: _525  and  _526
REMARK  214  A    between atoms: _525  and  _528
REMARK  215  A    between atoms: _528  and  _529
REMARK  216  A    between atoms: _532  and  _534
REMARK  217  A    between atoms: _534  and  _535
REMARK  218  A    between atoms: _537  and  _539
REMARK  219  A    between atoms: _539  and  _540
REMARK  220  A    between atoms: _539  and  _542
REMARK  221  A    between atoms: _542  and  _543
REMARK  222  A    between atoms: _548  and  _550
REMARK  223  A    between atoms: _550  and  _551
REMARK  224  A    between atoms: _550  and  _553
REMARK  225  A    between atoms: _553  and  _554
REMARK  226  A    between atoms: _554  and  _555
REMARK  227  A    between atoms: _562  and  _563
REMARK  228  A    between atoms: _563  and  _579
REMARK  229  A    between atoms: _564  and  _566
REMARK  230  A    between atoms: _566  and  _567
REMARK  231  A    between atoms: _567  and  _568
REMARK  232  A    between atoms: _572  and  _574
REMARK  233  A    between atoms: _574  and  _575
REMARK  234  A    between atoms: _574  and  _582
REMARK  235  A    between atoms: _575  and  _576
REMARK  236  A    between atoms: _576  and  _577
REMARK  237  A    between atoms: _577  and  _578
REMARK  238  A    between atoms: _578  and  _579
REMARK  239  A    between atoms: _584  and  _586
REMARK  240  A    between atoms: _586  and  _587
REMARK  241  A    between atoms: _586  and  _589
REMARK  242  A    between atoms: _589  and  _590
REMARK  243  A    between atoms: _593  and  _595
REMARK  244  A    between atoms: _595  and  _596
REMARK  245  A    between atoms: _598  and  _600
REMARK  246  A    between atoms: _600  and  _601
REMARK  247  A    between atoms: _604  and  _606
REMARK  248  A    between atoms: _606  and  _607
REMARK  249  A    between atoms: _606  and  _609
REMARK  250  A    between atoms: _609  and  _610
REMARK  251  A    between atoms: _615  and  _616
REMARK                            x       y       z     vdW  Elec       q    Type
REMARK                         _______ _______ _______ _____ _____    ______ ____
ROOT
ATOM      1  CA  GLU A   1      41.538  21.384  44.390  0.00  0.00    +0.134 C 
ENDROOT
BRANCH   1   2
ATOM      2  N   GLU A   1      41.058  22.500  45.215  0.00  0.00    -0.239 NA
ATOM      3  H   GLU A   1      41.433  23.455  45.044  0.00  0.00    +0.142 HD
ENDBRANCH   1   2
BRANCH   1   4
ATOM      4  C   GLU A   1      42.256  20.300  45.197  0.00  0.00    +0.224 C 
ATOM      5  O   GLU A   1      42.042  19.102  44.967  0.00  0.00    -0.287 OA
ENDBRANCH   1   4
BRANCH   1   6
ATOM      6  CB  GLU A   1      42.410  21.885  43.229  0.00  0.00    +0.037 C 
BRANCH   6   7
ATOM      7  CG  GLU A   1      41.632  22.693  42.184  0.00  0.00    +0.116 C 
BRANCH   7   8
ATOM      8  CD  GLU A   1      42.502  23.214  41.059  0.00  0.00    +0.365 C 
ATOM      9  OE2 GLU A   1      43.747  23.098  41.156  0.00  0.00    -0.246 OA
ATOM     10  OE1 GLU A   1      41.942  23.749  40.072  0.00  0.00    -0.246 OA
ENDBRANCH   7   8
ENDBRANCH   6   7
ENDBRANCH   1   6
TORSDOF 5
REMARK  Name = ../refined-set-2016/3l7d/3l7d_pocket.pdb
REMARK  251 active torsions:
REMARK  status: ('A' for Active; 'I' for Inactive)
REMARK    1  A    between atoms: _1  and  _3
REMARK    2  A    between atoms: _3  and  _4
REMARK    3  A    between atoms: _3  and  _6
REMARK    4  A    between atoms: _6  and  _7
REMARK    5  A    between atoms: _12  and  _13
REMARK    6  A    between atoms: _15  and  _17
REMARK    7  A    between atoms: _17  and  _18
REMARK    8  A    between atoms: _17  and  _20
REMARK    9  A    between atoms: _20  and  _21
REMARK   10  A    between atoms: _24  and  _26
REMARK   11  A    between atoms: _26  and  _27
REMARK   12  A    between atoms: _26  and  _29
REMARK   13  A    between atoms: _29  and  _30
REMARK   14  A    between atoms: _30  and  _31
REMARK   15  A    between atoms: _34  and  _36
REMARK   16  A    between atoms: _36  and  _37
REMARK   17  A    between atoms: _36  and  _39
REMARK   18  A    between atoms: _39  and  _40
REMARK   19  A    between atoms: _45  and  _47
REMARK   20  A    between atoms: _47  and  _48
REMARK   21  A    between atoms: _50  and  _52
REMARK   22  A    between atoms: _52  and  _53
REMARK   23  A    between atoms: _55  and  _57
REMARK   24  A    between atoms: _57  and  _58
REMARK   25  A    between atoms: _57  and  _60
REMARK   26  A    between atoms: _60  and  _61
REMARK   27  A    between atoms: _64  and  _66
REMARK   28  A    between atoms: _66  and  _67
REMARK   29  A    between atoms: _69  and  _71
REMARK   30  A    between atoms: _71  and  _72
REMARK   31  A    between atoms: _71  and  _74
REMARK   32  A    between atoms: _74  and  _75
REMARK   33  A    between atoms: _75  and  _76
REMARK   34  A    between atoms: _76  and  _77
REMARK   35  A    between atoms: _86  and  _88
REMARK   36  A    between atoms: _88  and  _89
REMARK   37  A    between atoms: _88  and  _91
REMARK   38  A    between atoms: _91  and  _92
REMARK   39  A    between atoms: _95  and  _97
REMARK   40  A    between atoms: _97  and  _98
REMARK   41  A    between atoms: _101  and  _103
REMARK   42  A    between atoms: _103  and  _104
REMARK   43  A    between atoms: _103  and  _106
REMARK   44  A    between atoms: _106  and  _107
REMARK   45  A    between atoms: _113  and  _115
REMARK   46  A    between atoms: _115  and  _116
REMARK   47  A    between atoms: _115  and  _118
REMARK   48  A    between atoms: _118  and  _119
REMARK   49  A    between atoms: _124  and  _125
REMARK   50  A    between atoms: _128  and  _129
REMARK   51  A    between atoms: _134  and  _136
REMARK   52  A    between atoms: _136  and  _137
REMARK   53  A    between atoms: _136  and  _139
REMARK   54  A    between atoms: _139  and  _140
REMARK   55  A    between atoms: _145  and  _147
REMARK   56  A    between atoms: _147  and  _148
REMARK   57  A    between atoms: _147  and  _150
REMARK   58  A    between atoms: _150  and  _151
REMARK   59  A    between atoms: _154  and  _156
REMARK   60  A    between atoms: _156  and  _157
REMARK   61  A    between atoms: _156  and  _159
REMARK   62  A    between atoms: _159  and  _160
REMARK   63  A    between atoms: _165  and  _167
REMARK   64  A    between atoms: _167  and  _168
REMARK   65  A    between atoms: _167  and  _170
REMARK   66  A    between atoms: _170  and  _171
REMARK   67  A    between atoms: _177  and  _179
REMARK   68  A    between atoms: _179  and  _180
REMARK   69  A    between atoms: _179  and  _182
REMARK   70  A    between atoms: _182  and  _183
REMARK   71  A    between atoms: _189  and  _191
REMARK   72  A    between atoms: _191  and  _192
REMARK   73  A    between atoms: _191  and  _194
REMARK   74  A    between atoms: _194  and  _195
REMARK   75  A    between atoms: _195  and  _196
REMARK   76  A    between atoms: _199  and  _201
REMARK   77  A    between atoms: _201  and  _202
REMARK   78  A    between atoms: _201  and  _204
REMARK   79  A    between atoms: _204  and  _205
REMARK   80  A    between atoms: _205  and  _206
REMARK   81  A    between atoms: _206  and  _207
REMARK   82  A    between atoms: _216  and  _218
REMARK   83  A    between atoms: _218  and  _219
REMARK   84  A    between atoms: _218  and  _221
REMARK   85  A    between atoms: _221  and  _222
REMARK   86  A    between atoms: _222  and  _223
REMARK   87  A    between atoms: _226  and  _228
REMARK   88  A    between atoms: _228  and  _229
REMARK   89  A    between atoms: _228  and  _231
REMARK   90  A    between atoms: _231  and  _232
REMARK   91  A    between atoms: _237  and  _239
REMARK   92  A    between atoms: _239  and  _240
REMARK   93  A    between atoms: _239  and  _242
REMARK   94  A    between atoms: _242  and  _243
REMARK   95  A    between atoms: _246  and  _248
REMARK   96  A    between atoms: _248  and  _249
REMARK   97  A    between atoms: _248  and  _251
REMARK   98  A    between atoms: _251  and  _252
REMARK   99  A    between atoms: _255  and  _257
REMARK  100  A    between atoms: _257  and  _258
REMARK  101  A    between atoms: _257  and  _260
REMARK  102  A    between atoms: _260  and  _261
REMARK  103  A    between atoms: _266  and  _268
REMARK  104  A    between atoms: _268  and  _269
REMARK  105  A    between atoms: _268  and  _271
REMARK  106  A    between atoms: _271  and  _272
REMARK  107  A    between atoms: _275  and  _277
REMARK  108  A    between atoms: _277  and  _278
REMARK  109  A    between atoms: _277  and  _280
REMARK  110  A    between atoms: _280  and  _281
REMARK  111  A    between atoms: _286  and  _288
REMARK  112  A    between atoms: _288  and  _289
REMARK  113  A    between atoms: _288  and  _291
REMARK  114  A    between atoms: _291  and  _292
REMARK  115  A    between atoms: _297  and  _299
REMARK  116  A    between atoms: _299  and  _300
REMARK  117  A    between atoms: _299  and  _302
REMARK  118  A    between atoms: _302  and  _303
REMARK  119  A    between atoms: _306  and  _308
REMARK  120  A    between atoms: _308  and  _309
REMARK  121  A    between atoms: _308  and  _311
REMARK  122  A    between atoms: _314  and  _316
REMARK  123  A    between atoms: _316  and  _317
REMARK  124  A    between atoms: _316  and  _319
REMARK  125  A    between atoms: _319  and  _320
REMARK  126  A    between atoms: _323  and  _325
REMARK  127  A    between atoms: _325  and  _326
REMARK  128  A    between atoms: _325  and  _328
REMARK  129  A    between atoms: _328  and  _329
REMARK  130  A    between atoms: _329  and  _330
REMARK  131  A    between atoms: _333  and  _335
REMARK  132  A    between atoms: _335  and  _336
REMARK  133  A    between atoms: _339  and  _341
REMARK  134  A    between atoms: _341  and  _342
REMARK  135  A    between atoms: _341  and  _344
REMARK  136  A    between atoms: _344  and  _345
REMARK  137  A    between atoms: _348  and  _350
REMARK  138  A    between atoms: _350  and  _351
REMARK  139  A    between atoms: _350  and  _353
REMARK  140  A    between atoms: _353  and  _354
REMARK  141  A    between atoms: _354  and  _355
REMARK  142  A    between atoms: _358  and  _360
REMARK  143  A    between atoms: _360  and  _361
REMARK  144  A    between atoms: _360  and  _363
REMARK  145  A    between atoms: _363  and  _364
REMARK  146  A    between atoms: _369  and  _371
REMARK  147  A    between atoms: _371  and  _372
REMARK  148  A    between atoms: _374  and  _376
REMARK  149  A    between atoms: _376  and  _377
REMARK  150  A    between atoms: _376  and  _379
REMARK  151  A    between atoms: _382  and  _384
REMARK  152  A    between atoms: _384  and  _385
REMARK  153  A    between atoms: _388  and  _390
REMARK  154  A    between atoms: _390  and  _391
REMARK  155  A    between atoms: _390  and  _393
REMARK  156  A    between atoms: _393  and  _394
REMARK  157  A    between atoms: _399  and  _401
REMARK  158  A    between atoms: _401  and  _402
REMARK  159  A    between atoms: _401  and  _404
REMARK  160  A    between atoms: _404  and  _405
REMARK  161  A    between atoms: _405  and  _406
REMARK  162  A    between atoms: _406  and  _407
REMARK  163  A    between atoms: _407  and  _408
REMARK  164  A    between atoms: _412  and  _414
REMARK  165  A    between atoms: _414  and  _415
REMARK  166  A    between atoms: _414  and  _417
REMARK  167  A    between atoms: _417  and  _418
REMARK  168  A    between atoms: _423  and  _425
REMARK  169  A    between atoms: _425  and  _426
REMARK  170  A    between atoms: _428  and  _430
REMARK  171  A    between atoms: _430  and  _431
REMARK  172  A    between atoms: _430  and  _433
REMARK  173  A    between atoms: _433  and  _434
REMARK  174  A    between atoms: _434  and  _435
REMARK  175  A    between atoms: _435  and  _436
REMARK  176  A    between atoms: _436  and  _437
REMARK  177  A    between atoms: _441  and  _443
REMARK  178  A    between atoms: _443  and  _444
REMARK  179  A    between atoms: _443  and  _446
REMARK  180  A    between atoms: _446  and  _447
REMARK  181  A    between atoms: _447  and  _448
REMARK  182  A    between atoms: _448  and  _449
REMARK  183  A    between atoms: _458  and  _460
REMARK  184  A    between atoms: _460  and  _461
REMARK  185  A    between atoms: _460  and  _463
REMARK  186  A    between atoms: _463  and  _464
REMARK  187  A    between atoms: _469  and  _470
REMARK  188  A    between atoms: _472  and  _474
REMARK  189  A    between atoms: _474  and  _475
REMARK  190  A    between atoms: _474  and  _477
REMARK  191  A    between atoms: _477  and  _478
REMARK  192  A    between atoms: _478  and  _479
REMARK  193  A    between atoms: _479  and  _480
REMARK  194  A    between atoms: _480  and  _481
REMARK  195  A    between atoms: _485  and  _487
REMARK  196  A    between atoms: _487  and  _488
REMARK  197  A    between atoms: _487  and  _490
REMARK  198  A    between atoms: _490  and  _491
REMARK  199  A    between atoms: _494  and  _496
REMARK  200  A    between atoms: _496  and  _497
REMARK  201  A    between atoms: _496  and  _499
REMARK  202  A    between atoms: _499  and  _500
REMARK  203  A    between atoms: _500  and  _501
REMARK  204  A    between atoms: _504  and  _506
REMARK  205  A    between atoms: _506  and  _507
REMARK  206  A    between atoms: _510  and  _512
REMARK  207  A    between atoms: _512  and  _513
REMARK  208  A    between atoms: _512  and  _515
REMARK  209  A    between atoms: _515  and  _516
REMARK  210  A    between atoms: _518  and  _520
REMARK  211  A    between atoms: _520  and  _521
REMARK  212  A    between atoms: _523  and  _525
REMARK  213  A    between atoms: _525  and  _526
REMARK  214  A    between atoms: _525  and  _528
REMARK  215  A    between atoms: _528  and  _529
REMARK  216  A    between atoms: _532  and  _534
REMARK  217  A    between atoms: _534  and  _535
REMARK  218  A    between atoms: _537  and  _539
REMARK  219  A    between atoms: _539  and  _540
REMARK  220  A    between atoms: _539  and  _542
REMARK  221  A    between atoms: _542  and  _543
REMARK  222  A    between atoms: _548  and  _550
REMARK  223  A    between atoms: _550  and  _551
REMARK  224  A    between atoms: _550  and  _553
REMARK  225  A    between atoms: _553  and  _554
REMARK  226  A    between atoms: _554  and  _555
REMARK  227  A    between atoms: _562  and  _563
REMARK  228  A    between atoms: _563  and  _579
REMARK  229  A    between atoms: _564  and  _566
REMARK  230  A    between atoms: _566  and  _567
REMARK  231  A    between atoms: _567  and  _568
REMARK  232  A    between atoms: _572  and  _574
REMARK  233  A    between atoms: _574  and  _575
REMARK  234  A    between atoms: _574  and  _582
REMARK  235  A    between atoms: _575  and  _576
REMARK  236  A    between atoms: _576  and  _577
REMARK  237  A    between atoms: _577  and  _578
REMARK  238  A    between atoms: _578  and  _579
REMARK  239  A    between atoms: _584  and  _586
REMARK  240  A    between atoms: _586  and  _587
REMARK  241  A    between atoms: _586  and  _589
REMARK  242  A    between atoms: _589  and  _590
REMARK  243  A    between atoms: _593  and  _595
REMARK  244  A    between atoms: _595  and  _596
REMARK  245  A    between atoms: _598  and  _600
REMARK  246  A    between atoms: _600  and  _601
REMARK  247  A    between atoms: _604  and  _606
REMARK  248  A    between atoms: _606  and  _607
REMARK  249  A    between atoms: _606  and  _609
REMARK  250  A    between atoms: _609  and  _610
REMARK  251  A    between atoms: _615  and  _616
REMARK                            x       y       z     vdW  Elec       q    Type
REMARK                         _______ _______ _______ _____ _____    ______ ____
ROOT
ATOM      1  C   ASP A   2      41.320  18.253  34.246  0.00  0.00    +0.241 C 
ATOM      2  O   ASP A   2      41.421  17.264  34.966  0.00  0.00    -0.273 OA
ATOM      3  N   THR A   3      42.151  19.294  34.338  0.00  0.00    -0.295 N 
ATOM      4  H   THR A   3      41.971  20.144  33.766  0.00  0.00    +0.150 HD
ENDROOT
BRANCH   1   5
ATOM      5  CA  ASP A   2      40.189  18.324  33.210  0.00  0.00    +0.160 C 
BRANCH   5   8
ATOM      6  C   ASN A   1      38.400  17.196  34.515  0.00  0.00    +0.239 C 
ATOM      7  O   ASN A   1      38.285  18.111  35.350  0.00  0.00    -0.274 OA
ATOM      8  N   ASP A   2      39.214  17.254  33.453  0.00  0.00    -0.297 N 
ATOM      9  H   ASP A   2      39.151  16.488  32.752  0.00  0.00    +0.150 HD
BRANCH   6  10
ATOM     10  CA  ASN A   1      37.630  15.874  34.676  0.00  0.00    +0.154 C 
BRANCH  10  11
ATOM     11  N   ASN A   1      38.422  14.969  35.514  0.00  0.00    -0.238 NA
ATOM     12  H   ASN A   1      38.184  14.885  36.523  0.00  0.00    +0.142 HD
ENDBRANCH  10  11
BRANCH  10  13
ATOM     13  CB  ASN A   1      36.231  16.092  35.296  0.00  0.00    +0.111 C 
BRANCH  13  14
ATOM     14  CG  ASN A   1      35.224  16.690  34.319  0.00  0.00    +0.221 C 
ATOM     15  ND2 ASN A   1      34.188  17.349  34.855  0.00  0.00    -0.329 N 
ATOM     16 HD21 ASN A   1      34.103  17.432  35.888  0.00  0.00    +0.145 HD
ATOM     17 HD22 ASN A   1      33.469  17.778  34.238  0.00  0.00    +0.145 HD
ATOM     18  OD1 ASN A   1      35.369  16.565  33.106  0.00  0.00    -0.275 OA
ENDBRANCH  13  14
ENDBRANCH  10  13
ENDBRANCH   6  10
ENDBRANCH   5   8
BRANCH   5  19
ATOM     19  CB  ASP A   2      39.527  19.711  33.149  0.00  0.00    +0.143 C 
BRANCH  19  20
ATOM     20  CG  ASP A   2      40.224  20.632  32.145  0.00  0.00    +0.367 C 
ATOM     21  OD2 ASP A   2      41.250  21.205  32.519  0.00  0.00    -0.246 OA
ATOM     22  OD1 ASP A   2      39.808  20.721  30.964  0.00  0.00    -0.246 OA
ENDBRANCH  19  20
ENDBRANCH   5  19
ENDBRANCH   1   5
BRANCH   3  23
ATOM     23  CA  THR A   3      43.310  19.260  35.230  0.00  0.00    +0.176 C 
BRANCH  23  24
ATOM     24  C   THR A   3      42.954  19.695  36.646  0.00  0.00    +0.243 C 
ATOM     25  O   THR A   3      43.819  19.690  37.541  0.00  0.00    -0.273 OA
ATOM     26  N   HIS A   4      41.703  20.097  36.863  0.00  0.00    -0.298 N 
ATOM     27  H   HIS A   4      40.997  20.063  36.100  0.00  0.00    +0.150 HD
BRANCH  26  28
ATOM     28  CA  HIS A   4      41.338  20.586  38.188  0.00  0.00    +0.143 C 
BRANCH  28  29
ATOM     29  C   HIS A   4      41.696  19.610  39.328  0.00  0.00    +0.227 C 
ATOM     30  O   HIS A   4      42.224  20.038  40.347  0.00  0.00    -0.286 OA
ENDBRANCH  28  29
BRANCH  28  31
ATOM     31  CB  HIS A   4      39.884  21.123  38.249  0.00  0.00    +0.075 C 
BRANCH  31  32
ATOM     32  CG  HIS A   4      39.500  21.957  37.064  0.00  0.00    +0.082 A 
ATOM     33  ND1 HIS A   4      38.209  22.033  36.595  0.00  0.00    -0.227 NA
ATOM     34  CE1 HIS A   4      38.173  22.828  35.537  0.00  0.00    +0.199 A 
ATOM     35  NE2 HIS A   4      39.396  23.272  35.305  0.00  0.00    -0.221 NA
ATOM     36  CD2 HIS A   4      40.246  22.738  36.241  0.00  0.00    +0.115 A 
ENDBRANCH  31  32
ENDBRANCH  28  31
ENDBRANCH  26  28
ENDBRANCH  23  24
BRANCH  23  37
ATOM     37  CB  THR A   3      44.443  20.202  34.742  0.00  0.00    +0.137 C 
ATOM     38  CG2 THR A   3      44.938  19.806  33.361  0.00  0.00    +0.034 C 
BRANCH  37  39
ATOM     39  OG1 THR A   3      43.931  21.527  34.665  0.00  0.00    -0.382 OA
ATOM     40  HG1 THR A   3      43.618  21.811  35.560  0.00  0.00    +0.210 HD
ENDBRANCH  37  39
ENDBRANCH  23  37
ENDBRANCH   3  23
TORSDOF 16
REMARK  Name = ../refined-set-2016/3l7d/3l7d_pocket.pdb
REMARK  251 active torsions:
REMARK  status: ('A' for Active; 'I' for Inactive)
REMARK    1  A    between atoms: _1  and  _3
REMARK    2  A    between atoms: _3  and  _4
REMARK    3  A    between atoms: _3  and  _6
REMARK    4  A    between atoms: _6  and  _7
REMARK    5  A    between atoms: _12  and  _13
REMARK    6  A    between atoms: _15  and  _17
REMARK    7  A    between atoms: _17  and  _18
REMARK    8  A    between atoms: _17  and  _20
REMARK    9  A    between atoms: _20  and  _21
REMARK   10  A    between atoms: _24  and  _26
REMARK   11  A    between atoms: _26  and  _27
REMARK   12  A    between atoms: _26  and  _29
REMARK   13  A    between atoms: _29  and  _30
REMARK   14  A    between atoms: _30  and  _31
REMARK   15  A    between atoms: _34  and  _36
REMARK   16  A    between atoms: _36  and  _37
REMARK   17  A    between atoms: _36  and  _39
REMARK   18  A    between atoms: _39  and  _40
REMARK   19  A    between atoms: _45  and  _47
REMARK   20  A    between atoms: _47  and  _48
REMARK   21  A    between atoms: _50  and  _52
REMARK   22  A    between atoms: _52  and  _53
REMARK   23  A    between atoms: _55  and  _57
REMARK   24  A    between atoms: _57  and  _58
REMARK   25  A    between atoms: _57  and  _60
REMARK   26  A    between atoms: _60  and  _61
REMARK   27  A    between atoms: _64  and  _66
REMARK   28  A    between atoms: _66  and  _67
REMARK   29  A    between atoms: _69  and  _71
REMARK   30  A    between atoms: _71  and  _72
REMARK   31  A    between atoms: _71  and  _74
REMARK   32  A    between atoms: _74  and  _75
REMARK   33  A    between atoms: _75  and  _76
REMARK   34  A    between atoms: _76  and  _77
REMARK   35  A    between atoms: _86  and  _88
REMARK   36  A    between atoms: _88  and  _89
REMARK   37  A    between atoms: _88  and  _91
REMARK   38  A    between atoms: _91  and  _92
REMARK   39  A    between atoms: _95  and  _97
REMARK   40  A    between atoms: _97  and  _98
REMARK   41  A    between atoms: _101  and  _103
REMARK   42  A    between atoms: _103  and  _104
REMARK   43  A    between atoms: _103  and  _106
REMARK   44  A    between atoms: _106  and  _107
REMARK   45  A    between atoms: _113  and  _115
REMARK   46  A    between atoms: _115  and  _116
REMARK   47  A    between atoms: _115  and  _118
REMARK   48  A    between atoms: _118  and  _119
REMARK   49  A    between atoms: _124  and  _125
REMARK   50  A    between atoms: _128  and  _129
REMARK   51  A    between atoms: _134  and  _136
REMARK   52  A    between atoms: _136  and  _137
REMARK   53  A    between atoms: _136  and  _139
REMARK   54  A    between atoms: _139  and  _140
REMARK   55  A    between atoms: _145  and  _147
REMARK   56  A    between atoms: _147  and  _148
REMARK   57  A    between atoms: _147  and  _150
REMARK   58  A    between atoms: _150  and  _151
REMARK   59  A    between atoms: _154  and  _156
REMARK   60  A    between atoms: _156  and  _157
REMARK   61  A    between atoms: _156  and  _159
REMARK   62  A    between atoms: _159  and  _160
REMARK   63  A    between atoms: _165  and  _167
REMARK   64  A    between atoms: _167  and  _168
REMARK   65  A    between atoms: _167  and  _170
REMARK   66  A    between atoms: _170  and  _171
REMARK   67  A    between atoms: _177  and  _179
REMARK   68  A    between atoms: _179  and  _180
REMARK   69  A    between atoms: _179  and  _182
REMARK   70  A    between atoms: _182  and  _183
REMARK   71  A    between atoms: _189  and  _191
REMARK   72  A    between atoms: _191  and  _192
REMARK   73  A    between atoms: _191  and  _194
REMARK   74  A    between atoms: _194  and  _195
REMARK   75  A    between atoms: _195  and  _196
REMARK   76  A    between atoms: _199  and  _201
REMARK   77  A    between atoms: _201  and  _202
REMARK   78  A    between atoms: _201  and  _204
REMARK   79  A    between atoms: _204  and  _205
REMARK   80  A    between atoms: _205  and  _206
REMARK   81  A    between atoms: _206  and  _207
REMARK   82  A    between atoms: _216  and  _218
REMARK   83  A    between atoms: _218  and  _219
REMARK   84  A    between atoms: _218  and  _221
REMARK   85  A    between atoms: _221  and  _222
REMARK   86  A    between atoms: _222  and  _223
REMARK   87  A    between atoms: _226  and  _228
REMARK   88  A    between atoms: _228  and  _229
REMARK   89  A    between atoms: _228  and  _231
REMARK   90  A    between atoms: _231  and  _232
REMARK   91  A    between atoms: _237  and  _239
REMARK   92  A    between atoms: _239  and  _240
REMARK   93  A    between atoms: _239  and  _242
REMARK   94  A    between atoms: _242  and  _243
REMARK   95  A    between atoms: _246  and  _248
REMARK   96  A    between atoms: _248  and  _249
REMARK   97  A    between atoms: _248  and  _251
REMARK   98  A    between atoms: _251  and  _252
REMARK   99  A    between atoms: _255  and  _257
REMARK  100  A    between atoms: _257  and  _258
REMARK  101  A    between atoms: _257  and  _260
REMARK  102  A    between atoms: _260  and  _261
REMARK  103  A    between atoms: _266  and  _268
REMARK  104  A    between atoms: _268  and  _269
REMARK  105  A    between atoms: _268  and  _271
REMARK  106  A    between atoms: _271  and  _272
REMARK  107  A    between atoms: _275  and  _277
REMARK  108  A    between atoms: _277  and  _278
REMARK  109  A    between atoms: _277  and  _280
REMARK  110  A    between atoms: _280  and  _281
REMARK  111  A    between atoms: _286  and  _288
REMARK  112  A    between atoms: _288  and  _289
REMARK  113  A    between atoms: _288  and  _291
REMARK  114  A    between atoms: _291  and  _292
REMARK  115  A    between atoms: _297  and  _299
REMARK  116  A    between atoms: _299  and  _300
REMARK  117  A    between atoms: _299  and  _302
REMARK  118  A    between atoms: _302  and  _303
REMARK  119  A    between atoms: _306  and  _308
REMARK  120  A    between atoms: _308  and  _309
REMARK  121  A    between atoms: _308  and  _311
REMARK  122  A    between atoms: _314  and  _316
REMARK  123  A    between atoms: _316  and  _317
REMARK  124  A    between atoms: _316  and  _319
REMARK  125  A    between atoms: _319  and  _320
REMARK  126  A    between atoms: _323  and  _325
REMARK  127  A    between atoms: _325  and  _326
REMARK  128  A    between atoms: _325  and  _328
REMARK  129  A    between atoms: _328  and  _329
REMARK  130  A    between atoms: _329  and  _330
REMARK  131  A    between atoms: _333  and  _335
REMARK  132  A    between atoms: _335  and  _336
REMARK  133  A    between atoms: _339  and  _341
REMARK  134  A    between atoms: _341  and  _342
REMARK  135  A    between atoms: _341  and  _344
REMARK  136  A    between atoms: _344  and  _345
REMARK  137  A    between atoms: _348  and  _350
REMARK  138  A    between atoms: _350  and  _351
REMARK  139  A    between atoms: _350  and  _353
REMARK  140  A    between atoms: _353  and  _354
REMARK  141  A    between atoms: _354  and  _355
REMARK  142  A    between atoms: _358  and  _360
REMARK  143  A    between atoms: _360  and  _361
REMARK  144  A    between atoms: _360  and  _363
REMARK  145  A    between atoms: _363  and  _364
REMARK  146  A    between atoms: _369  and  _371
REMARK  147  A    between atoms: _371  and  _372
REMARK  148  A    between atoms: _374  and  _376
REMARK  149  A    between atoms: _376  and  _377
REMARK  150  A    between atoms: _376  and  _379
REMARK  151  A    between atoms: _382  and  _384
REMARK  152  A    between atoms: _384  and  _385
REMARK  153  A    between atoms: _388  and  _390
REMARK  154  A    between atoms: _390  and  _391
REMARK  155  A    between atoms: _390  and  _393
REMARK  156  A    between atoms: _393  and  _394
REMARK  157  A    between atoms: _399  and  _401
REMARK  158  A    between atoms: _401  and  _402
REMARK  159  A    between atoms: _401  and  _404
REMARK  160  A    between atoms: _404  and  _405
REMARK  161  A    between atoms: _405  and  _406
REMARK  162  A    between atoms: _406  and  _407
REMARK  163  A    between atoms: _407  and  _408
REMARK  164  A    between atoms: _412  and  _414
REMARK  165  A    between atoms: _414  and  _415
REMARK  166  A    between atoms: _414  and  _417
REMARK  167  A    between atoms: _417  and  _418
REMARK  168  A    between atoms: _423  and  _425
REMARK  169  A    between atoms: _425  and  _426
REMARK  170  A    between atoms: _428  and  _430
REMARK  171  A    between atoms: _430  and  _431
REMARK  172  A    between atoms: _430  and  _433
REMARK  173  A    between atoms: _433  and  _434
REMARK  174  A    between atoms: _434  and  _435
REMARK  175  A    between atoms: _435  and  _436
REMARK  176  A    between atoms: _436  and  _437
REMARK  177  A    between atoms: _441  and  _443
REMARK  178  A    between atoms: _443  and  _444
REMARK  179  A    between atoms: _443  and  _446
REMARK  180  A    between atoms: _446  and  _447
REMARK  181  A    between atoms: _447  and  _448
REMARK  182  A    between atoms: _448  and  _449
REMARK  183  A    between atoms: _458  and  _460
REMARK  184  A    between atoms: _460  and  _461
REMARK  185  A    between atoms: _460  and  _463
REMARK  186  A    between atoms: _463  and  _464
REMARK  187  A    between atoms: _469  and  _470
REMARK  188  A    between atoms: _472  and  _474
REMARK  189  A    between atoms: _474  and  _475
REMARK  190  A    between atoms: _474  and  _477
REMARK  191  A    between atoms: _477  and  _478
REMARK  192  A    between atoms: _478  and  _479
REMARK  193  A    between atoms: _479  and  _480
REMARK  194  A    between atoms: _480  and  _481
REMARK  195  A    between atoms: _485  and  _487
REMARK  196  A    between atoms: _487  and  _488
REMARK  197  A    between atoms: _487  and  _490
REMARK  198  A    between atoms: _490  and  _491
REMARK  199  A    between atoms: _494  and  _496
REMARK  200  A    between atoms: _496  and  _497
REMARK  201  A    between atoms: _496  and  _499
REMARK  202  A    between atoms: _499  and  _500
REMARK  203  A    between atoms: _500  and  _501
REMARK  204  A    between atoms: _504  and  _506
REMARK  205  A    between atoms: _506  and  _507
REMARK  206  A    between atoms: _510  and  _512
REMARK  207  A    between atoms: _512  and  _513
REMARK  208  A    between atoms: _512  and  _515
REMARK  209  A    between atoms: _515  and  _516
REMARK  210  A    between atoms: _518  and  _520
REMARK  211  A    between atoms: _520  and  _521
REMARK  212  A    between atoms: _523  and  _525
REMARK  213  A    between atoms: _525  and  _526
REMARK  214  A    between atoms: _525  and  _528
REMARK  215  A    between atoms: _528  and  _529
REMARK  216  A    between atoms: _532  and  _534
REMARK  217  A    between atoms: _534  and  _535
REMARK  218  A    between atoms: _537  and  _539
REMARK  219  A    between atoms: _539  and  _540
REMARK  220  A    between atoms: _539  and  _542
REMARK  221  A    between atoms: _542  and  _543
REMARK  222  A    between atoms: _548  and  _550
REMARK  223  A    between atoms: _550  and  _551
REMARK  224  A    between atoms: _550  and  _553
REMARK  225  A    between atoms: _553  and  _554
REMARK  226  A    between atoms: _554  and  _555
REMARK  227  A    between atoms: _562  and  _563
REMARK  228  A    between atoms: _563  and  _579
REMARK  229  A    between atoms: _564  and  _566
REMARK  230  A    between atoms: _566  and  _567
REMARK  231  A    between atoms: _567  and  _568
REMARK  232  A    between atoms: _572  and  _574
REMARK  233  A    between atoms: _574  and  _575
REMARK  234  A    between atoms: _574  and  _582
REMARK  235  A    between atoms: _575  and  _576
REMARK  236  A    between atoms: _576  and  _577
REMARK  237  A    between atoms: _577  and  _578
REMARK  238  A    between atoms: _578  and  _579
REMARK  239  A    between atoms: _584  and  _586
REMARK  240  A    between atoms: _586  and  _587
REMARK  241  A    between atoms: _586  and  _589
REMARK  242  A    between atoms: _589  and  _590
REMARK  243  A    between atoms: _593  and  _595
REMARK  244  A    between atoms: _595  and  _596
REMARK  245  A    between atoms: _598  and  _600
REMARK  246  A    between atoms: _600  and  _601
REMARK  247  A    between atoms: _604  and  _606
REMARK  248  A    between atoms: _606  and  _607
REMARK  249  A    between atoms: _606  and  _609
REMARK  250  A    between atoms: _609  and  _610
REMARK  251  A    between atoms: _615  and  _616
REMARK                            x       y       z     vdW  Elec       q    Type
REMARK                         _______ _______ _______ _____ _____    ______ ____
ROOT
ATOM      1  CA  HIS A   3      38.106  20.145  27.570  0.00  0.00    +0.155 C 
ENDROOT
BRANCH   1   3
ATOM      2  C   ASN A   2      39.659  18.268  27.634  0.00  0.00    +0.241 C 
ATOM      3  N   HIS A   3      39.333  19.500  28.031  0.00  0.00    -0.297 N 
ATOM      4  H   HIS A   3      39.965  20.010  28.681  0.00  0.00    +0.150 HD
ATOM      5  O   ASN A   2      38.993  17.624  26.816  0.00  0.00    -0.273 OA
BRANCH   2   6
ATOM      6  CA  ASN A   2      40.911  17.662  28.230  0.00  0.00    +0.158 C 
BRANCH   6   9
ATOM      7  C   THR A   1      40.309  15.798  29.732  0.00  0.00    +0.241 C 
ATOM      8  O   THR A   1      40.167  16.537  30.713  0.00  0.00    -0.274 OA
ATOM      9  N   ASN A   2      40.669  16.240  28.527  0.00  0.00    -0.297 N 
ATOM     10  H   ASN A   2      40.785  15.547  27.760  0.00  0.00    +0.150 HD
BRANCH   7  11
ATOM     11  CA  THR A   1      40.055  14.297  29.864  0.00  0.00    +0.172 C 
BRANCH  11  12
ATOM     12  N   THR A   1      40.886  13.743  30.938  0.00  0.00    -0.236 NA
ATOM     13  H   THR A   1      40.674  14.008  31.921  0.00  0.00    +0.142 HD
ENDBRANCH  11  12
BRANCH  11  14
ATOM     14  CB  THR A   1      38.552  14.072  30.157  0.00  0.00    +0.135 C 
ATOM     15  CG2 THR A   1      37.668  14.648  29.043  0.00  0.00    +0.034 C 
BRANCH  14  16
ATOM     16  OG1 THR A   1      38.295  12.674  30.318  0.00  0.00    -0.383 OA
ATOM     17  HG1 THR A   1      38.543  12.196  29.487  0.00  0.00    +0.210 HD
ENDBRANCH  14  16
ENDBRANCH  11  14
ENDBRANCH   7  11
ENDBRANCH   6   9
BRANCH   6  18
ATOM     18  CB  ASN A   2      42.093  17.801  27.244  0.00  0.00    +0.114 C 
BRANCH  18  19
ATOM     19  CG  ASN A   2      42.295  19.241  26.741  0.00  0.00    +0.222 C 
ATOM     20  ND2 ASN A   2      43.188  19.970  27.380  0.00  0.00    -0.329 N 
ATOM     21 HD21 ASN A   2      43.696  19.573  28.196  0.00  0.00    +0.145 HD
ATOM     22 HD22 ASN A   2      43.385  20.942  27.068  0.00  0.00    +0.145 HD
ATOM     23  OD1 ASN A   2      41.674  19.668  25.775  0.00  0.00    -0.275 OA
ENDBRANCH  18  19
ENDBRANCH   6  18
ENDBRANCH   2   6
ENDBRANCH   1   3
BRANCH   1  24
ATOM     24  C   HIS A   3      38.309  21.454  26.776  0.00  0.00    +0.241 C 
ATOM     25  N   THR A   4      39.551  21.915  26.594  0.00  0.00    -0.295 N 
ATOM     26  H   THR A   4      40.363  21.395  26.984  0.00  0.00    +0.150 HD
ATOM     27  O   HIS A   3      37.334  22.059  26.346  0.00  0.00    -0.273 OA
BRANCH  25  28
ATOM     28  CA  THR A   4      39.765  23.168  25.836  0.00  0.00    +0.176 C 
BRANCH  28  29
ATOM     29  C   THR A   4      41.174  23.294  25.287  0.00  0.00    +0.243 C 
ATOM     30  O   THR A   4      42.094  22.660  25.802  0.00  0.00    -0.273 OA
ATOM     31  N   VAL A   5      41.322  24.093  24.230  0.00  0.00    -0.297 N 
ATOM     32  H   VAL A   5      40.477  24.508  23.789  0.00  0.00    +0.150 HD
BRANCH  31  33
ATOM     33  CA  VAL A   5      42.640  24.404  23.672  0.00  0.00    +0.149 C 
BRANCH  33  34
ATOM     34  C   VAL A   5      43.032  25.863  23.865  0.00  0.00    +0.241 C 
ATOM     35  N   LEU A   6      42.137  26.687  24.406  0.00  0.00    -0.298 N 
ATOM     36  H   LEU A   6      41.197  26.327  24.669  0.00  0.00    +0.150 HD
ATOM     37  O   VAL A   5      44.144  26.233  23.520  0.00  0.00    -0.273 OA
BRANCH  35  38
ATOM     38  CA  LEU A   6      42.461  28.086  24.633  0.00  0.00    +0.137 C 
BRANCH  38  39
ATOM     39  C   LEU A   6      43.566  28.204  25.677  0.00  0.00    +0.227 C 
ATOM     40  O   LEU A   6      43.425  27.695  26.786  0.00  0.00    -0.286 OA
ENDBRANCH  38  39
BRANCH  38  41
ATOM     41  CB  LEU A   6      41.239  28.897  25.075  0.00  0.00    +0.028 C 
BRANCH  41  42
ATOM     42  CG  LEU A   6      40.098  29.187  24.091  0.00  0.00    +0.002 C 
ATOM     43  CD2 LEU A   6      39.287  30.364  24.647  0.00  0.00    +0.000 C 
ATOM     44  CD1 LEU A   6      40.585  29.490  22.670  0.00  0.00    +0.000 C 
ENDBRANCH  41  42
ENDBRANCH  38  41
ENDBRANCH  35  38
ENDBRANCH  33  34
BRANCH  33  45
ATOM     45  CB  VAL A   5      42.789  24.040  22.155  0.00  0.00    +0.027 C 
ATOM     46  CG2 VAL A   5      42.527  22.527  21.912  0.00  0.00    +0.002 C 
ATOM     47  CG1 VAL A   5      41.910  24.952  21.261  0.00  0.00    +0.002 C 
ENDBRANCH  33  45
ENDBRANCH  31  33
ENDBRANCH  28  29
BRANCH  28  48
ATOM     48  CB  THR A   4      39.384  24.455  26.652  0.00  0.00    +0.137 C 
ATOM     49  CG2 THR A   4      40.202  24.555  27.943  0.00  0.00    +0.034 C 
BRANCH  48  50
ATOM     50  OG1 THR A   4      39.567  25.636  25.840  0.00  0.00    -0.382 OA
ATOM     51  HG1 THR A   4      39.323  26.438  26.367  0.00  0.00    +0.210 HD
ENDBRANCH  48  50
ENDBRANCH  28  48
ENDBRANCH  25  28
ENDBRANCH   1  24
BRANCH   1  52
ATOM     52  CB  HIS A   3      37.174  20.431  28.752  0.00  0.00    +0.076 C 
BRANCH  52  53
ATOM     53  CG  HIS A   3      36.694  19.215  29.480  0.00  0.00    +0.082 A 
ATOM     54  CD2 HIS A   3      37.238  18.516  30.506  0.00  0.00    +0.115 A 
ATOM     55  NE2 HIS A   3      36.361  17.505  30.818  0.00  0.00    -0.221 NA
ATOM     56  CE1 HIS A   3      35.315  17.582  30.013  0.00  0.00    +0.199 A 
ATOM     57  ND1 HIS A   3      35.489  18.608  29.199  0.00  0.00    -0.227 NA
ENDBRANCH  52  53
ENDBRANCH   1  52
TORSDOF 23
REMARK  Name = ../refined-set-2016/3l7d/3l7d_pocket.pdb
REMARK  251 active torsions:
REMARK  status: ('A' for Active; 'I' for Inactive)
REMARK    1  A    between atoms: _1  and  _3
REMARK    2  A    between atoms: _3  and  _4
REMARK    3  A    between atoms: _3  and  _6
REMARK    4  A    between atoms: _6  and  _7
REMARK    5  A    between atoms: _12  and  _13
REMARK    6  A    between atoms: _15  and  _17
REMARK    7  A    between atoms: _17  and  _18
REMARK    8  A    between atoms: _17  and  _20
REMARK    9  A    between atoms: _20  and  _21
REMARK   10  A    between atoms: _24  and  _26
REMARK   11  A    between atoms: _26  and  _27
REMARK   12  A    between atoms: _26  and  _29
REMARK   13  A    between atoms: _29  and  _30
REMARK   14  A    between atoms: _30  and  _31
REMARK   15  A    between atoms: _34  and  _36
REMARK   16  A    between atoms: _36  and  _37
REMARK   17  A    between atoms: _36  and  _39
REMARK   18  A    between atoms: _39  and  _40
REMARK   19  A    between atoms: _45  and  _47
REMARK   20  A    between atoms: _47  and  _48
REMARK   21  A    between atoms: _50  and  _52
REMARK   22  A    between atoms: _52  and  _53
REMARK   23  A    between atoms: _55  and  _57
REMARK   24  A    between atoms: _57  and  _58
REMARK   25  A    between atoms: _57  and  _60
REMARK   26  A    between atoms: _60  and  _61
REMARK   27  A    between atoms: _64  and  _66
REMARK   28  A    between atoms: _66  and  _67
REMARK   29  A    between atoms: _69  and  _71
REMARK   30  A    between atoms: _71  and  _72
REMARK   31  A    between atoms: _71  and  _74
REMARK   32  A    between atoms: _74  and  _75
REMARK   33  A    between atoms: _75  and  _76
REMARK   34  A    between atoms: _76  and  _77
REMARK   35  A    between atoms: _86  and  _88
REMARK   36  A    between atoms: _88  and  _89
REMARK   37  A    between atoms: _88  and  _91
REMARK   38  A    between atoms: _91  and  _92
REMARK   39  A    between atoms: _95  and  _97
REMARK   40  A    between atoms: _97  and  _98
REMARK   41  A    between atoms: _101  and  _103
REMARK   42  A    between atoms: _103  and  _104
REMARK   43  A    between atoms: _103  and  _106
REMARK   44  A    between atoms: _106  and  _107
REMARK   45  A    between atoms: _113  and  _115
REMARK   46  A    between atoms: _115  and  _116
REMARK   47  A    between atoms: _115  and  _118
REMARK   48  A    between atoms: _118  and  _119
REMARK   49  A    between atoms: _124  and  _125
REMARK   50  A    between atoms: _128  and  _129
REMARK   51  A    between atoms: _134  and  _136
REMARK   52  A    between atoms: _136  and  _137
REMARK   53  A    between atoms: _136  and  _139
REMARK   54  A    between atoms: _139  and  _140
REMARK   55  A    between atoms: _145  and  _147
REMARK   56  A    between atoms: _147  and  _148
REMARK   57  A    between atoms: _147  and  _150
REMARK   58  A    between atoms: _150  and  _151
REMARK   59  A    between atoms: _154  and  _156
REMARK   60  A    between atoms: _156  and  _157
REMARK   61  A    between atoms: _156  and  _159
REMARK   62  A    between atoms: _159  and  _160
REMARK   63  A    between atoms: _165  and  _167
REMARK   64  A    between atoms: _167  and  _168
REMARK   65  A    between atoms: _167  and  _170
REMARK   66  A    between atoms: _170  and  _171
REMARK   67  A    between atoms: _177  and  _179
REMARK   68  A    between atoms: _179  and  _180
REMARK   69  A    between atoms: _179  and  _182
REMARK   70  A    between atoms: _182  and  _183
REMARK   71  A    between atoms: _189  and  _191
REMARK   72  A    between atoms: _191  and  _192
REMARK   73  A    between atoms: _191  and  _194
REMARK   74  A    between atoms: _194  and  _195
REMARK   75  A    between atoms: _195  and  _196
REMARK   76  A    between atoms: _199  and  _201
REMARK   77  A    between atoms: _201  and  _202
REMARK   78  A    between atoms: _201  and  _204
REMARK   79  A    between atoms: _204  and  _205
REMARK   80  A    between atoms: _205  and  _206
REMARK   81  A    between atoms: _206  and  _207
REMARK   82  A    between atoms: _216  and  _218
REMARK   83  A    between atoms: _218  and  _219
REMARK   84  A    between atoms: _218  and  _221
REMARK   85  A    between atoms: _221  and  _222
REMARK   86  A    between atoms: _222  and  _223
REMARK   87  A    between atoms: _226  and  _228
REMARK   88  A    between atoms: _228  and  _229
REMARK   89  A    between atoms: _228  and  _231
REMARK   90  A    between atoms: _231  and  _232
REMARK   91  A    between atoms: _237  and  _239
REMARK   92  A    between atoms: _239  and  _240
REMARK   93  A    between atoms: _239  and  _242
REMARK   94  A    between atoms: _242  and  _243
REMARK   95  A    between atoms: _246  and  _248
REMARK   96  A    between atoms: _248  and  _249
REMARK   97  A    between atoms: _248  and  _251
REMARK   98  A    between atoms: _251  and  _252
REMARK   99  A    between atoms: _255  and  _257
REMARK  100  A    between atoms: _257  and  _258
REMARK  101  A    between atoms: _257  and  _260
REMARK  102  A    between atoms: _260  and  _261
REMARK  103  A    between atoms: _266  and  _268
REMARK  104  A    between atoms: _268  and  _269
REMARK  105  A    between atoms: _268  and  _271
REMARK  106  A    between atoms: _271  and  _272
REMARK  107  A    between atoms: _275  and  _277
REMARK  108  A    between atoms: _277  and  _278
REMARK  109  A    between atoms: _277  and  _280
REMARK  110  A    between atoms: _280  and  _281
REMARK  111  A    between atoms: _286  and  _288
REMARK  112  A    between atoms: _288  and  _289
REMARK  113  A    between atoms: _288  and  _291
REMARK  114  A    between atoms: _291  and  _292
REMARK  115  A    between atoms: _297  and  _299
REMARK  116  A    between atoms: _299  and  _300
REMARK  117  A    between atoms: _299  and  _302
REMARK  118  A    between atoms: _302  and  _303
REMARK  119  A    between atoms: _306  and  _308
REMARK  120  A    between atoms: _308  and  _309
REMARK  121  A    between atoms: _308  and  _311
REMARK  122  A    between atoms: _314  and  _316
REMARK  123  A    between atoms: _316  and  _317
REMARK  124  A    between atoms: _316  and  _319
REMARK  125  A    between atoms: _319  and  _320
REMARK  126  A    between atoms: _323  and  _325
REMARK  127  A    between atoms: _325  and  _326
REMARK  128  A    between atoms: _325  and  _328
REMARK  129  A    between atoms: _328  and  _329
REMARK  130  A    between atoms: _329  and  _330
REMARK  131  A    between atoms: _333  and  _335
REMARK  132  A    between atoms: _335  and  _336
REMARK  133  A    between atoms: _339  and  _341
REMARK  134  A    between atoms: _341  and  _342
REMARK  135  A    between atoms: _341  and  _344
REMARK  136  A    between atoms: _344  and  _345
REMARK  137  A    between atoms: _348  and  _350
REMARK  138  A    between atoms: _350  and  _351
REMARK  139  A    between atoms: _350  and  _353
REMARK  140  A    between atoms: _353  and  _354
REMARK  141  A    between atoms: _354  and  _355
REMARK  142  A    between atoms: _358  and  _360
REMARK  143  A    between atoms: _360  and  _361
REMARK  144  A    between atoms: _360  and  _363
REMARK  145  A    between atoms: _363  and  _364
REMARK  146  A    between atoms: _369  and  _371
REMARK  147  A    between atoms: _371  and  _372
REMARK  148  A    between atoms: _374  and  _376
REMARK  149  A    between atoms: _376  and  _377
REMARK  150  A    between atoms: _376  and  _379
REMARK  151  A    between atoms: _382  and  _384
REMARK  152  A    between atoms: _384  and  _385
REMARK  153  A    between atoms: _388  and  _390
REMARK  154  A    between atoms: _390  and  _391
REMARK  155  A    between atoms: _390  and  _393
REMARK  156  A    between atoms: _393  and  _394
REMARK  157  A    between atoms: _399  and  _401
REMARK  158  A    between atoms: _401  and  _402
REMARK  159  A    between atoms: _401  and  _404
REMARK  160  A    between atoms: _404  and  _405
REMARK  161  A    between atoms: _405  and  _406
REMARK  162  A    between atoms: _406  and  _407
REMARK  163  A    between atoms: _407  and  _408
REMARK  164  A    between atoms: _412  and  _414
REMARK  165  A    between atoms: _414  and  _415
REMARK  166  A    between atoms: _414  and  _417
REMARK  167  A    between atoms: _417  and  _418
REMARK  168  A    between atoms: _423  and  _425
REMARK  169  A    between atoms: _425  and  _426
REMARK  170  A    between atoms: _428  and  _430
REMARK  171  A    between atoms: _430  and  _431
REMARK  172  A    between atoms: _430  and  _433
REMARK  173  A    between atoms: _433  and  _434
REMARK  174  A    between atoms: _434  and  _435
REMARK  175  A    between atoms: _435  and  _436
REMARK  176  A    between atoms: _436  and  _437
REMARK  177  A    between atoms: _441  and  _443
REMARK  178  A    between atoms: _443  and  _444
REMARK  179  A    between atoms: _443  and  _446
REMARK  180  A    between atoms: _446  and  _447
REMARK  181  A    between atoms: _447  and  _448
REMARK  182  A    between atoms: _448  and  _449
REMARK  183  A    between atoms: _458  and  _460
REMARK  184  A    between atoms: _460  and  _461
REMARK  185  A    between atoms: _460  and  _463
REMARK  186  A    between atoms: _463  and  _464
REMARK  187  A    between atoms: _469  and  _470
REMARK  188  A    between atoms: _472  and  _474
REMARK  189  A    between atoms: _474  and  _475
REMARK  190  A    between atoms: _474  and  _477
REMARK  191  A    between atoms: _477  and  _478
REMARK  192  A    between atoms: _478  and  _479
REMARK  193  A    between atoms: _479  and  _480
REMARK  194  A    between atoms: _480  and  _481
REMARK  195  A    between atoms: _485  and  _487
REMARK  196  A    between atoms: _487  and  _488
REMARK  197  A    between atoms: _487  and  _490
REMARK  198  A    between atoms: _490  and  _491
REMARK  199  A    between atoms: _494  and  _496
REMARK  200  A    between atoms: _496  and  _497
REMARK  201  A    between atoms: _496  and  _499
REMARK  202  A    between atoms: _499  and  _500
REMARK  203  A    between atoms: _500  and  _501
REMARK  204  A    between atoms: _504  and  _506
REMARK  205  A    between atoms: _506  and  _507
REMARK  206  A    between atoms: _510  and  _512
REMARK  207  A    between atoms: _512  and  _513
REMARK  208  A    between atoms: _512  and  _515
REMARK  209  A    between atoms: _515  and  _516
REMARK  210  A    between atoms: _518  and  _520
REMARK  211  A    between atoms: _520  and  _521
REMARK  212  A    between atoms: _523  and  _525
REMARK  213  A    between atoms: _525  and  _526
REMARK  214  A    between atoms: _525  and  _528
REMARK  215  A    between atoms: _528  and  _529
REMARK  216  A    between atoms: _532  and  _534
REMARK  217  A    between atoms: _534  and  _535
REMARK  218  A    between atoms: _537  and  _539
REMARK  219  A    between atoms: _539  and  _540
REMARK  220  A    between atoms: _539  and  _542
REMARK  221  A    between atoms: _542  and  _543
REMARK  222  A    between atoms: _548  and  _550
REMARK  223  A    between atoms: _550  and  _551
REMARK  224  A    between atoms: _550  and  _553
REMARK  225  A    between atoms: _553  and  _554
REMARK  226  A    between atoms: _554  and  _555
REMARK  227  A    between atoms: _562  and  _563
REMARK  228  A    between atoms: _563  and  _579
REMARK  229  A    between atoms: _564  and  _566
REMARK  230  A    between atoms: _566  and  _567
REMARK  231  A    between atoms: _567  and  _568
REMARK  232  A    between atoms: _572  and  _574
REMARK  233  A    between atoms: _574  and  _575
REMARK  234  A    between atoms: _574  and  _582
REMARK  235  A    between atoms: _575  and  _576
REMARK  236  A    between atoms: _576  and  _577
REMARK  237  A    between atoms: _577  and  _578
REMARK  238  A    between atoms: _578  and  _579
REMARK  239  A    between atoms: _584  and  _586
REMARK  240  A    between atoms: _586  and  _587
REMARK  241  A    between atoms: _586  and  _589
REMARK  242  A    between atoms: _589  and  _590
REMARK  243  A    between atoms: _593  and  _595
REMARK  244  A    between atoms: _595  and  _596
REMARK  245  A    between atoms: _598  and  _600
REMARK  246  A    between atoms: _600  and  _601
REMARK  247  A    between atoms: _604  and  _606
REMARK  248  A    between atoms: _606  and  _607
REMARK  249  A    between atoms: _606  and  _609
REMARK  250  A    between atoms: _609  and  _610
REMARK  251  A    between atoms: _615  and  _616
REMARK                            x       y       z     vdW  Elec       q    Type
REMARK                         _______ _______ _______ _____ _____    ______ ____
ROOT
ATOM      1  C   ALA A   2      43.216  27.362  30.989  0.00  0.00    +0.241 C 
ATOM      2  O   ALA A   2      42.772  26.734  31.952  0.00  0.00    -0.273 OA
ATOM      3  N   LEU A   3      44.441  27.152  30.507  0.00  0.00    -0.297 N 
ATOM      4  H   LEU A   3      44.785  27.735  29.718  0.00  0.00    +0.150 HD
ENDROOT
BRANCH   1   5
ATOM      5  CA  ALA A   2      42.356  28.437  30.298  0.00  0.00    +0.149 C 
ATOM      6  CB  ALA A   2      41.215  27.787  29.508  0.00  0.00    +0.031 C 
BRANCH   5   9
ATOM      7  C   GLU A   1      43.694  30.450  29.884  0.00  0.00    +0.238 C 
ATOM      8  O   GLU A   1      43.619  30.819  31.059  0.00  0.00    -0.274 OA
ATOM      9  N   ALA A   2      43.121  29.336  29.431  0.00  0.00    -0.297 N 
ATOM     10  H   ALA A   2      43.221  29.096  28.424  0.00  0.00    +0.150 HD
BRANCH   7  11
ATOM     11  CA  GLU A   1      44.467  31.286  28.858  0.00  0.00    +0.145 C 
BRANCH  11  12
ATOM     12  N   GLU A   1      44.716  30.582  27.606  0.00  0.00    -0.238 NA
ATOM     13  H   GLU A   1      44.182  30.849  26.755  0.00  0.00    +0.142 HD
ENDBRANCH  11  12
BRANCH  11  14
ATOM     14  CB  GLU A   1      43.762  32.632  28.605  0.00  0.00    +0.038 C 
BRANCH  14  15
ATOM     15  CG  GLU A   1      42.365  32.535  27.999  0.00  0.00    +0.116 C 
BRANCH  15  16
ATOM     16  CD  GLU A   1      42.341  32.698  26.476  0.00  0.00    +0.365 C 
ATOM     17  OE2 GLU A   1      41.301  33.160  25.949  0.00  0.00    -0.246 OA
ATOM     18  OE1 GLU A   1      43.340  32.355  25.807  0.00  0.00    -0.246 OA
ENDBRANCH  15  16
ENDBRANCH  14  15
ENDBRANCH  11  14
ENDBRANCH   7  11
ENDBRANCH   5   9
ENDBRANCH   1   5
BRANCH   3  19
ATOM     19  CA  LEU A   3      45.311  26.119  31.065  0.00  0.00    +0.149 C 
BRANCH  19  20
ATOM     20  C   LEU A   3      45.799  26.465  32.468  0.00  0.00    +0.241 C 
ATOM     21  N   GLU A   4      45.754  25.485  33.375  0.00  0.00    -0.298 N 
ATOM     22  H   GLU A   4      45.382  24.553  33.103  0.00  0.00    +0.150 HD
ATOM     23  O   LEU A   3      46.199  27.598  32.728  0.00  0.00    -0.273 OA
BRANCH  21  24
ATOM     24  CA  GLU A   4      46.217  25.701  34.740  0.00  0.00    +0.137 C 
BRANCH  24  25
ATOM     25  C   GLU A   4      47.724  25.619  34.786  0.00  0.00    +0.227 C 
ATOM     26  O   GLU A   4      48.307  24.567  34.520  0.00  0.00    -0.286 OA
ENDBRANCH  24  25
BRANCH  24  27
ATOM     27  CB  GLU A   4      45.629  24.680  35.723  0.00  0.00    +0.039 C 
BRANCH  27  28
ATOM     28  CG  GLU A   4      44.122  24.828  35.977  0.00  0.00    +0.116 C 
BRANCH  28  29
ATOM     29  CD  GLU A   4      43.654  23.955  37.121  0.00  0.00    +0.365 C 
ATOM     30  OE2 GLU A   4      43.277  24.511  38.165  0.00  0.00    -0.246 OA
ATOM     31  OE1 GLU A   4      43.670  22.710  36.990  0.00  0.00    -0.246 OA
ENDBRANCH  28  29
ENDBRANCH  27  28
ENDBRANCH  24  27
ENDBRANCH  21  24
ENDBRANCH  19  20
BRANCH  19  32
ATOM     32  CB  LEU A   3      46.510  25.852  30.145  0.00  0.00    +0.029 C 
BRANCH  32  33
ATOM     33  CG  LEU A   3      46.270  25.331  28.729  0.00  0.00    +0.002 C 
ATOM     34  CD2 LEU A   3      45.377  24.088  28.707  0.00  0.00    +0.000 C 
ATOM     35  CD1 LEU A   3      47.618  25.024  28.064  0.00  0.00    +0.000 C 
ENDBRANCH  32  33
ENDBRANCH  19  32
ENDBRANCH   3  19
TORSDOF 16
REMARK  Name = ../refined-set-2016/3l7d/3l7d_pocket.pdb
REMARK  251 active torsions:
REMARK  status: ('A' for Active; 'I' for Inactive)
REMARK    1  A    between atoms: _1  and  _3
REMARK    2  A    between atoms: _3  and  _4
REMARK    3  A    between atoms: _3  and  _6
REMARK    4  A    between atoms: _6  and  _7
REMARK    5  A    between atoms: _12  and  _13
REMARK    6  A    between atoms: _15  and  _17
REMARK    7  A    between atoms: _17  and  _18
REMARK    8  A    between atoms: _17  and  _20
REMARK    9  A    between atoms: _20  and  _21
REMARK   10  A    between atoms: _24  and  _26
REMARK   11  A    between atoms: _26  and  _27
REMARK   12  A    between atoms: _26  and  _29
REMARK   13  A    between atoms: _29  and  _30
REMARK   14  A    between atoms: _30  and  _31
REMARK   15  A    between atoms: _34  and  _36
REMARK   16  A    between atoms: _36  and  _37
REMARK   17  A    between atoms: _36  and  _39
REMARK   18  A    between atoms: _39  and  _40
REMARK   19  A    between atoms: _45  and  _47
REMARK   20  A    between atoms: _47  and  _48
REMARK   21  A    between atoms: _50  and  _52
REMARK   22  A    between atoms: _52  and  _53
REMARK   23  A    between atoms: _55  and  _57
REMARK   24  A    between atoms: _57  and  _58
REMARK   25  A    between atoms: _57  and  _60
REMARK   26  A    between atoms: _60  and  _61
REMARK   27  A    between atoms: _64  and  _66
REMARK   28  A    between atoms: _66  and  _67
REMARK   29  A    between atoms: _69  and  _71
REMARK   30  A    between atoms: _71  and  _72
REMARK   31  A    between atoms: _71  and  _74
REMARK   32  A    between atoms: _74  and  _75
REMARK   33  A    between atoms: _75  and  _76
REMARK   34  A    between atoms: _76  and  _77
REMARK   35  A    between atoms: _86  and  _88
REMARK   36  A    between atoms: _88  and  _89
REMARK   37  A    between atoms: _88  and  _91
REMARK   38  A    between atoms: _91  and  _92
REMARK   39  A    between atoms: _95  and  _97
REMARK   40  A    between atoms: _97  and  _98
REMARK   41  A    between atoms: _101  and  _103
REMARK   42  A    between atoms: _103  and  _104
REMARK   43  A    between atoms: _103  and  _106
REMARK   44  A    between atoms: _106  and  _107
REMARK   45  A    between atoms: _113  and  _115
REMARK   46  A    between atoms: _115  and  _116
REMARK   47  A    between atoms: _115  and  _118
REMARK   48  A    between atoms: _118  and  _119
REMARK   49  A    between atoms: _124  and  _125
REMARK   50  A    between atoms: _128  and  _129
REMARK   51  A    between atoms: _134  and  _136
REMARK   52  A    between atoms: _136  and  _137
REMARK   53  A    between atoms: _136  and  _139
REMARK   54  A    between atoms: _139  and  _140
REMARK   55  A    between atoms: _145  and  _147
REMARK   56  A    between atoms: _147  and  _148
REMARK   57  A    between atoms: _147  and  _150
REMARK   58  A    between atoms: _150  and  _151
REMARK   59  A    between atoms: _154  and  _156
REMARK   60  A    between atoms: _156  and  _157
REMARK   61  A    between atoms: _156  and  _159
REMARK   62  A    between atoms: _159  and  _160
REMARK   63  A    between atoms: _165  and  _167
REMARK   64  A    between atoms: _167  and  _168
REMARK   65  A    between atoms: _167  and  _170
REMARK   66  A    between atoms: _170  and  _171
REMARK   67  A    between atoms: _177  and  _179
REMARK   68  A    between atoms: _179  and  _180
REMARK   69  A    between atoms: _179  and  _182
REMARK   70  A    between atoms: _182  and  _183
REMARK   71  A    between atoms: _189  and  _191
REMARK   72  A    between atoms: _191  and  _192
REMARK   73  A    between atoms: _191  and  _194
REMARK   74  A    between atoms: _194  and  _195
REMARK   75  A    between atoms: _195  and  _196
REMARK   76  A    between atoms: _199  and  _201
REMARK   77  A    between atoms: _201  and  _202
REMARK   78  A    between atoms: _201  and  _204
REMARK   79  A    between atoms: _204  and  _205
REMARK   80  A    between atoms: _205  and  _206
REMARK   81  A    between atoms: _206  and  _207
REMARK   82  A    between atoms: _216  and  _218
REMARK   83  A    between atoms: _218  and  _219
REMARK   84  A    between atoms: _218  and  _221
REMARK   85  A    between atoms: _221  and  _222
REMARK   86  A    between atoms: _222  and  _223
REMARK   87  A    between atoms: _226  and  _228
REMARK   88  A    between atoms: _228  and  _229
REMARK   89  A    between atoms: _228  and  _231
REMARK   90  A    between atoms: _231  and  _232
REMARK   91  A    between atoms: _237  and  _239
REMARK   92  A    between atoms: _239  and  _240
REMARK   93  A    between atoms: _239  and  _242
REMARK   94  A    between atoms: _242  and  _243
REMARK   95  A    between atoms: _246  and  _248
REMARK   96  A    between atoms: _248  and  _249
REMARK   97  A    between atoms: _248  and  _251
REMARK   98  A    between atoms: _251  and  _252
REMARK   99  A    between atoms: _255  and  _257
REMARK  100  A    between atoms: _257  and  _258
REMARK  101  A    between atoms: _257  and  _260
REMARK  102  A    between atoms: _260  and  _261
REMARK  103  A    between atoms: _266  and  _268
REMARK  104  A    between atoms: _268  and  _269
REMARK  105  A    between atoms: _268  and  _271
REMARK  106  A    between atoms: _271  and  _272
REMARK  107  A    between atoms: _275  and  _277
REMARK  108  A    between atoms: _277  and  _278
REMARK  109  A    between atoms: _277  and  _280
REMARK  110  A    between atoms: _280  and  _281
REMARK  111  A    between atoms: _286  and  _288
REMARK  112  A    between atoms: _288  and  _289
REMARK  113  A    between atoms: _288  and  _291
REMARK  114  A    between atoms: _291  and  _292
REMARK  115  A    between atoms: _297  and  _299
REMARK  116  A    between atoms: _299  and  _300
REMARK  117  A    between atoms: _299  and  _302
REMARK  118  A    between atoms: _302  and  _303
REMARK  119  A    between atoms: _306  and  _308
REMARK  120  A    between atoms: _308  and  _309
REMARK  121  A    between atoms: _308  and  _311
REMARK  122  A    between atoms: _314  and  _316
REMARK  123  A    between atoms: _316  and  _317
REMARK  124  A    between atoms: _316  and  _319
REMARK  125  A    between atoms: _319  and  _320
REMARK  126  A    between atoms: _323  and  _325
REMARK  127  A    between atoms: _325  and  _326
REMARK  128  A    between atoms: _325  and  _328
REMARK  129  A    between atoms: _328  and  _329
REMARK  130  A    between atoms: _329  and  _330
REMARK  131  A    between atoms: _333  and  _335
REMARK  132  A    between atoms: _335  and  _336
REMARK  133  A    between atoms: _339  and  _341
REMARK  134  A    between atoms: _341  and  _342
REMARK  135  A    between atoms: _341  and  _344
REMARK  136  A    between atoms: _344  and  _345
REMARK  137  A    between atoms: _348  and  _350
REMARK  138  A    between atoms: _350  and  _351
REMARK  139  A    between atoms: _350  and  _353
REMARK  140  A    between atoms: _353  and  _354
REMARK  141  A    between atoms: _354  and  _355
REMARK  142  A    between atoms: _358  and  _360
REMARK  143  A    between atoms: _360  and  _361
REMARK  144  A    between atoms: _360  and  _363
REMARK  145  A    between atoms: _363  and  _364
REMARK  146  A    between atoms: _369  and  _371
REMARK  147  A    between atoms: _371  and  _372
REMARK  148  A    between atoms: _374  and  _376
REMARK  149  A    between atoms: _376  and  _377
REMARK  150  A    between atoms: _376  and  _379
REMARK  151  A    between atoms: _382  and  _384
REMARK  152  A    between atoms: _384  and  _385
REMARK  153  A    between atoms: _388  and  _390
REMARK  154  A    between atoms: _390  and  _391
REMARK  155  A    between atoms: _390  and  _393
REMARK  156  A    between atoms: _393  and  _394
REMARK  157  A    between atoms: _399  and  _401
REMARK  158  A    between atoms: _401  and  _402
REMARK  159  A    between atoms: _401  and  _404
REMARK  160  A    between atoms: _404  and  _405
REMARK  161  A    between atoms: _405  and  _406
REMARK  162  A    between atoms: _406  and  _407
REMARK  163  A    between atoms: _407  and  _408
REMARK  164  A    between atoms: _412  and  _414
REMARK  165  A    between atoms: _414  and  _415
REMARK  166  A    between atoms: _414  and  _417
REMARK  167  A    between atoms: _417  and  _418
REMARK  168  A    between atoms: _423  and  _425
REMARK  169  A    between atoms: _425  and  _426
REMARK  170  A    between atoms: _428  and  _430
REMARK  171  A    between atoms: _430  and  _431
REMARK  172  A    between atoms: _430  and  _433
REMARK  173  A    between atoms: _433  and  _434
REMARK  174  A    between atoms: _434  and  _435
REMARK  175  A    between atoms: _435  and  _436
REMARK  176  A    between atoms: _436  and  _437
REMARK  177  A    between atoms: _441  and  _443
REMARK  178  A    between atoms: _443  and  _444
REMARK  179  A    between atoms: _443  and  _446
REMARK  180  A    between atoms: _446  and  _447
REMARK  181  A    between atoms: _447  and  _448
REMARK  182  A    between atoms: _448  and  _449
REMARK  183  A    between atoms: _458  and  _460
REMARK  184  A    between atoms: _460  and  _461
REMARK  185  A    between atoms: _460  and  _463
REMARK  186  A    between atoms: _463  and  _464
REMARK  187  A    between atoms: _469  and  _470
REMARK  188  A    between atoms: _472  and  _474
REMARK  189  A    between atoms: _474  and  _475
REMARK  190  A    between atoms: _474  and  _477
REMARK  191  A    between atoms: _477  and  _478
REMARK  192  A    between atoms: _478  and  _479
REMARK  193  A    between atoms: _479  and  _480
REMARK  194  A    between atoms: _480  and  _481
REMARK  195  A    between atoms: _485  and  _487
REMARK  196  A    between atoms: _487  and  _488
REMARK  197  A    between atoms: _487  and  _490
REMARK  198  A    between atoms: _490  and  _491
REMARK  199  A    between atoms: _494  and  _496
REMARK  200  A    between atoms: _496  and  _497
REMARK  201  A    between atoms: _496  and  _499
REMARK  202  A    between atoms: _499  and  _500
REMARK  203  A    between atoms: _500  and  _501
REMARK  204  A    between atoms: _504  and  _506
REMARK  205  A    between atoms: _506  and  _507
REMARK  206  A    between atoms: _510  and  _512
REMARK  207  A    between atoms: _512  and  _513
REMARK  208  A    between atoms: _512  and  _515
REMARK  209  A    between atoms: _515  and  _516
REMARK  210  A    between atoms: _518  and  _520
REMARK  211  A    between atoms: _520  and  _521
REMARK  212  A    between atoms: _523  and  _525
REMARK  213  A    between atoms: _525  and  _526
REMARK  214  A    between atoms: _525  and  _528
REMARK  215  A    between atoms: _528  and  _529
REMARK  216  A    between atoms: _532  and  _534
REMARK  217  A    between atoms: _534  and  _535
REMARK  218  A    between atoms: _537  and  _539
REMARK  219  A    between atoms: _539  and  _540
REMARK  220  A    between atoms: _539  and  _542
REMARK  221  A    between atoms: _542  and  _543
REMARK  222  A    between atoms: _548  and  _550
REMARK  223  A    between atoms: _550  and  _551
REMARK  224  A    between atoms: _550  and  _553
REMARK  225  A    between atoms: _553  and  _554
REMARK  226  A    between atoms: _554  and  _555
REMARK  227  A    between atoms: _562  and  _563
REMARK  228  A    between atoms: _563  and  _579
REMARK  229  A    between atoms: _564  and  _566
REMARK  230  A    between atoms: _566  and  _567
REMARK  231  A    between atoms: _567  and  _568
REMARK  232  A    between atoms: _572  and  _574
REMARK  233  A    between atoms: _574  and  _575
REMARK  234  A    between atoms: _574  and  _582
REMARK  235  A    between atoms: _575  and  _576
REMARK  236  A    between atoms: _576  and  _577
REMARK  237  A    between atoms: _577  and  _578
REMARK  238  A    between atoms: _578  and  _579
REMARK  239  A    between atoms: _584  and  _586
REMARK  240  A    between atoms: _586  and  _587
REMARK  241  A    between atoms: _586  and  _589
REMARK  242  A    between atoms: _589  and  _590
REMARK  243  A    between atoms: _593  and  _595
REMARK  244  A    between atoms: _595  and  _596
REMARK  245  A    between atoms: _598  and  _600
REMARK  246  A    between atoms: _600  and  _601
REMARK  247  A    between atoms: _604  and  _606
REMARK  248  A    between atoms: _606  and  _607
REMARK  249  A    between atoms: _606  and  _609
REMARK  250  A    between atoms: _609  and  _610
REMARK  251  A    between atoms: _615  and  _616
REMARK                            x       y       z     vdW  Elec       q    Type
REMARK                         _______ _______ _______ _____ _____    ______ ____
ROOT
ATOM      1  C   GLY A   2      38.090  14.596  23.704  0.00  0.00    +0.243 C 
ATOM      2  O   GLY A   2      37.706  13.430  23.837  0.00  0.00    -0.273 OA
ATOM      3  N   VAL A   3      37.255  15.597  23.445  0.00  0.00    -0.297 N 
ATOM      4  H   VAL A   3      37.631  16.499  23.088  0.00  0.00    +0.150 HD
ENDROOT
BRANCH   1   5
ATOM      5  CA  GLY A   2      39.569  14.942  23.808  0.00  0.00    +0.176 C 
BRANCH   5   8
ATOM      6  C   ASN A   1      40.639  13.376  25.358  0.00  0.00    +0.239 C 
ATOM      7  O   ASN A   1      40.555  14.138  26.311  0.00  0.00    -0.274 OA
ATOM      8  N   GLY A   2      40.323  13.721  24.115  0.00  0.00    -0.296 N 
ATOM      9  H   GLY A   2      40.620  13.104  23.332  0.00  0.00    +0.150 HD
BRANCH   6  10
ATOM     10  CA  ASN A   1      41.127  11.956  25.547  0.00  0.00    +0.154 C 
BRANCH  10  11
ATOM     11  N   ASN A   1      42.135  11.811  26.597  0.00  0.00    -0.238 NA
ATOM     12  H   ASN A   1      41.950  12.179  27.552  0.00  0.00    +0.142 HD
ENDBRANCH  10  11
BRANCH  10  13
ATOM     13  CB  ASN A   1      39.924  10.996  25.760  0.00  0.00    +0.111 C 
BRANCH  13  14
ATOM     14  CG  ASN A   1      38.970  11.458  26.862  0.00  0.00    +0.221 C 
ATOM     15  OD1 ASN A   1      39.241  11.269  28.045  0.00  0.00    -0.275 OA
ATOM     16  ND2 ASN A   1      37.820  12.018  26.467  0.00  0.00    -0.329 N 
ATOM     17 HD21 ASN A   1      37.115  12.312  27.173  0.00  0.00    +0.145 HD
ATOM     18 HD22 ASN A   1      37.631  12.159  25.454  0.00  0.00    +0.145 HD
ENDBRANCH  13  14
ENDBRANCH  10  13
ENDBRANCH   6  10
ENDBRANCH   5   8
ENDBRANCH   1   5
BRANCH   3  19
ATOM     19  CA  VAL A   3      35.795  15.448  23.657  0.00  0.00    +0.149 C 
BRANCH  19  20
ATOM     20  C   VAL A   3      34.947  15.531  22.376  0.00  0.00    +0.241 C 
ATOM     21  O   VAL A   3      33.719  15.554  22.429  0.00  0.00    -0.273 OA
ATOM     22  N   ALA A   4      35.624  15.582  21.233  0.00  0.00    -0.298 N 
ATOM     23  H   ALA A   4      36.655  15.714  21.279  0.00  0.00    +0.150 HD
BRANCH  22  24
ATOM     24  CA  ALA A   4      35.000  15.463  19.910  0.00  0.00    +0.137 C 
ATOM     25  CB  ALA A   4      34.291  16.756  19.506  0.00  0.00    +0.030 C 
BRANCH  24  26
ATOM     26  C   ALA A   4      36.118  15.134  18.936  0.00  0.00    +0.227 C 
ATOM     27  O   ALA A   4      37.292  15.407  19.219  0.00  0.00    -0.286 OA
ENDBRANCH  24  26
ENDBRANCH  22  24
ENDBRANCH  19  20
BRANCH  19  28
ATOM     28  CB  VAL A   3      35.282  16.414  24.766  0.00  0.00    +0.027 C 
ATOM     29  CG2 VAL A   3      35.830  15.982  26.146  0.00  0.00    +0.002 C 
ATOM     30  CG1 VAL A   3      35.659  17.883  24.456  0.00  0.00    +0.002 C 
ENDBRANCH  19  28
ENDBRANCH   3  19
TORSDOF 11
REMARK  Name = ../refined-set-2016/3l7d/3l7d_pocket.pdb
REMARK  251 active torsions:
REMARK  status: ('A' for Active; 'I' for Inactive)
REMARK    1  A    between atoms: _1  and  _3
REMARK    2  A    between atoms: _3  and  _4
REMARK    3  A    between atoms: _3  and  _6
REMARK    4  A    between atoms: _6  and  _7
REMARK    5  A    between atoms: _12  and  _13
REMARK    6  A    between atoms: _15  and  _17
REMARK    7  A    between atoms: _17  and  _18
REMARK    8  A    between atoms: _17  and  _20
REMARK    9  A    between atoms: _20  and  _21
REMARK   10  A    between atoms: _24  and  _26
REMARK   11  A    between atoms: _26  and  _27
REMARK   12  A    between atoms: _26  and  _29
REMARK   13  A    between atoms: _29  and  _30
REMARK   14  A    between atoms: _30  and  _31
REMARK   15  A    between atoms: _34  and  _36
REMARK   16  A    between atoms: _36  and  _37
REMARK   17  A    between atoms: _36  and  _39
REMARK   18  A    between atoms: _39  and  _40
REMARK   19  A    between atoms: _45  and  _47
REMARK   20  A    between atoms: _47  and  _48
REMARK   21  A    between atoms: _50  and  _52
REMARK   22  A    between atoms: _52  and  _53
REMARK   23  A    between atoms: _55  and  _57
REMARK   24  A    between atoms: _57  and  _58
REMARK   25  A    between atoms: _57  and  _60
REMARK   26  A    between atoms: _60  and  _61
REMARK   27  A    between atoms: _64  and  _66
REMARK   28  A    between atoms: _66  and  _67
REMARK   29  A    between atoms: _69  and  _71
REMARK   30  A    between atoms: _71  and  _72
REMARK   31  A    between atoms: _71  and  _74
REMARK   32  A    between atoms: _74  and  _75
REMARK   33  A    between atoms: _75  and  _76
REMARK   34  A    between atoms: _76  and  _77
REMARK   35  A    between atoms: _86  and  _88
REMARK   36  A    between atoms: _88  and  _89
REMARK   37  A    between atoms: _88  and  _91
REMARK   38  A    between atoms: _91  and  _92
REMARK   39  A    between atoms: _95  and  _97
REMARK   40  A    between atoms: _97  and  _98
REMARK   41  A    between atoms: _101  and  _103
REMARK   42  A    between atoms: _103  and  _104
REMARK   43  A    between atoms: _103  and  _106
REMARK   44  A    between atoms: _106  and  _107
REMARK   45  A    between atoms: _113  and  _115
REMARK   46  A    between atoms: _115  and  _116
REMARK   47  A    between atoms: _115  and  _118
REMARK   48  A    between atoms: _118  and  _119
REMARK   49  A    between atoms: _124  and  _125
REMARK   50  A    between atoms: _128  and  _129
REMARK   51  A    between atoms: _134  and  _136
REMARK   52  A    between atoms: _136  and  _137
REMARK   53  A    between atoms: _136  and  _139
REMARK   54  A    between atoms: _139  and  _140
REMARK   55  A    between atoms: _145  and  _147
REMARK   56  A    between atoms: _147  and  _148
REMARK   57  A    between atoms: _147  and  _150
REMARK   58  A    between atoms: _150  and  _151
REMARK   59  A    between atoms: _154  and  _156
REMARK   60  A    between atoms: _156  and  _157
REMARK   61  A    between atoms: _156  and  _159
REMARK   62  A    between atoms: _159  and  _160
REMARK   63  A    between atoms: _165  and  _167
REMARK   64  A    between atoms: _167  and  _168
REMARK   65  A    between atoms: _167  and  _170
REMARK   66  A    between atoms: _170  and  _171
REMARK   67  A    between atoms: _177  and  _179
REMARK   68  A    between atoms: _179  and  _180
REMARK   69  A    between atoms: _179  and  _182
REMARK   70  A    between atoms: _182  and  _183
REMARK   71  A    between atoms: _189  and  _191
REMARK   72  A    between atoms: _191  and  _192
REMARK   73  A    between atoms: _191  and  _194
REMARK   74  A    between atoms: _194  and  _195
REMARK   75  A    between atoms: _195  and  _196
REMARK   76  A    between atoms: _199  and  _201
REMARK   77  A    between atoms: _201  and  _202
REMARK   78  A    between atoms: _201  and  _204
REMARK   79  A    between atoms: _204  and  _205
REMARK   80  A    between atoms: _205  and  _206
REMARK   81  A    between atoms: _206  and  _207
REMARK   82  A    between atoms: _216  and  _218
REMARK   83  A    between atoms: _218  and  _219
REMARK   84  A    between atoms: _218  and  _221
REMARK   85  A    between atoms: _221  and  _222
REMARK   86  A    between atoms: _222  and  _223
REMARK   87  A    between atoms: _226  and  _228
REMARK   88  A    between atoms: _228  and  _229
REMARK   89  A    between atoms: _228  and  _231
REMARK   90  A    between atoms: _231  and  _232
REMARK   91  A    between atoms: _237  and  _239
REMARK   92  A    between atoms: _239  and  _240
REMARK   93  A    between atoms: _239  and  _242
REMARK   94  A    between atoms: _242  and  _243
REMARK   95  A    between atoms: _246  and  _248
REMARK   96  A    between atoms: _248  and  _249
REMARK   97  A    between atoms: _248  and  _251
REMARK   98  A    between atoms: _251  and  _252
REMARK   99  A    between atoms: _255  and  _257
REMARK  100  A    between atoms: _257  and  _258
REMARK  101  A    between atoms: _257  and  _260
REMARK  102  A    between atoms: _260  and  _261
REMARK  103  A    between atoms: _266  and  _268
REMARK  104  A    between atoms: _268  and  _269
REMARK  105  A    between atoms: _268  and  _271
REMARK  106  A    between atoms: _271  and  _272
REMARK  107  A    between atoms: _275  and  _277
REMARK  108  A    between atoms: _277  and  _278
REMARK  109  A    between atoms: _277  and  _280
REMARK  110  A    between atoms: _280  and  _281
REMARK  111  A    between atoms: _286  and  _288
REMARK  112  A    between atoms: _288  and  _289
REMARK  113  A    between atoms: _288  and  _291
REMARK  114  A    between atoms: _291  and  _292
REMARK  115  A    between atoms: _297  and  _299
REMARK  116  A    between atoms: _299  and  _300
REMARK  117  A    between atoms: _299  and  _302
REMARK  118  A    between atoms: _302  and  _303
REMARK  119  A    between atoms: _306  and  _308
REMARK  120  A    between atoms: _308  and  _309
REMARK  121  A    between atoms: _308  and  _311
REMARK  122  A    between atoms: _314  and  _316
REMARK  123  A    between atoms: _316  and  _317
REMARK  124  A    between atoms: _316  and  _319
REMARK  125  A    between atoms: _319  and  _320
REMARK  126  A    between atoms: _323  and  _325
REMARK  127  A    between atoms: _325  and  _326
REMARK  128  A    between atoms: _325  and  _328
REMARK  129  A    between atoms: _328  and  _329
REMARK  130  A    between atoms: _329  and  _330
REMARK  131  A    between atoms: _333  and  _335
REMARK  132  A    between atoms: _335  and  _336
REMARK  133  A    between atoms: _339  and  _341
REMARK  134  A    between atoms: _341  and  _342
REMARK  135  A    between atoms: _341  and  _344
REMARK  136  A    between atoms: _344  and  _345
REMARK  137  A    between atoms: _348  and  _350
REMARK  138  A    between atoms: _350  and  _351
REMARK  139  A    between atoms: _350  and  _353
REMARK  140  A    between atoms: _353  and  _354
REMARK  141  A    between atoms: _354  and  _355
REMARK  142  A    between atoms: _358  and  _360
REMARK  143  A    between atoms: _360  and  _361
REMARK  144  A    between atoms: _360  and  _363
REMARK  145  A    between atoms: _363  and  _364
REMARK  146  A    between atoms: _369  and  _371
REMARK  147  A    between atoms: _371  and  _372
REMARK  148  A    between atoms: _374  and  _376
REMARK  149  A    between atoms: _376  and  _377
REMARK  150  A    between atoms: _376  and  _379
REMARK  151  A    between atoms: _382  and  _384
REMARK  152  A    between atoms: _384  and  _385
REMARK  153  A    between atoms: _388  and  _390
REMARK  154  A    between atoms: _390  and  _391
REMARK  155  A    between atoms: _390  and  _393
REMARK  156  A    between atoms: _393  and  _394
REMARK  157  A    between atoms: _399  and  _401
REMARK  158  A    between atoms: _401  and  _402
REMARK  159  A    between atoms: _401  and  _404
REMARK  160  A    between atoms: _404  and  _405
REMARK  161  A    between atoms: _405  and  _406
REMARK  162  A    between atoms: _406  and  _407
REMARK  163  A    between atoms: _407  and  _408
REMARK  164  A    between atoms: _412  and  _414
REMARK  165  A    between atoms: _414  and  _415
REMARK  166  A    between atoms: _414  and  _417
REMARK  167  A    between atoms: _417  and  _418
REMARK  168  A    between atoms: _423  and  _425
REMARK  169  A    between atoms: _425  and  _426
REMARK  170  A    between atoms: _428  and  _430
REMARK  171  A    between atoms: _430  and  _431
REMARK  172  A    between atoms: _430  and  _433
REMARK  173  A    between atoms: _433  and  _434
REMARK  174  A    between atoms: _434  and  _435
REMARK  175  A    between atoms: _435  and  _436
REMARK  176  A    between atoms: _436  and  _437
REMARK  177  A    between atoms: _441  and  _443
REMARK  178  A    between atoms: _443  and  _444
REMARK  179  A    between atoms: _443  and  _446
REMARK  180  A    between atoms: _446  and  _447
REMARK  181  A    between atoms: _447  and  _448
REMARK  182  A    between atoms: _448  and  _449
REMARK  183  A    between atoms: _458  and  _460
REMARK  184  A    between atoms: _460  and  _461
REMARK  185  A    between atoms: _460  and  _463
REMARK  186  A    between atoms: _463  and  _464
REMARK  187  A    between atoms: _469  and  _470
REMARK  188  A    between atoms: _472  and  _474
REMARK  189  A    between atoms: _474  and  _475
REMARK  190  A    between atoms: _474  and  _477
REMARK  191  A    between atoms: _477  and  _478
REMARK  192  A    between atoms: _478  and  _479
REMARK  193  A    between atoms: _479  and  _480
REMARK  194  A    between atoms: _480  and  _481
REMARK  195  A    between atoms: _485  and  _487
REMARK  196  A    between atoms: _487  and  _488
REMARK  197  A    between atoms: _487  and  _490
REMARK  198  A    between atoms: _490  and  _491
REMARK  199  A    between atoms: _494  and  _496
REMARK  200  A    between atoms: _496  and  _497
REMARK  201  A    between atoms: _496  and  _499
REMARK  202  A    between atoms: _499  and  _500
REMARK  203  A    between atoms: _500  and  _501
REMARK  204  A    between atoms: _504  and  _506
REMARK  205  A    between atoms: _506  and  _507
REMARK  206  A    between atoms: _510  and  _512
REMARK  207  A    between atoms: _512  and  _513
REMARK  208  A    between atoms: _512  and  _515
REMARK  209  A    between atoms: _515  and  _516
REMARK  210  A    between atoms: _518  and  _520
REMARK  211  A    between atoms: _520  and  _521
REMARK  212  A    between atoms: _523  and  _525
REMARK  213  A    between atoms: _525  and  _526
REMARK  214  A    between atoms: _525  and  _528
REMARK  215  A    between atoms: _528  and  _529
REMARK  216  A    between atoms: _532  and  _534
REMARK  217  A    between atoms: _534  and  _535
REMARK  218  A    between atoms: _537  and  _539
REMARK  219  A    between atoms: _539  and  _540
REMARK  220  A    between atoms: _539  and  _542
REMARK  221  A    between atoms: _542  and  _543
REMARK  222  A    between atoms: _548  and  _550
REMARK  223  A    between atoms: _550  and  _551
REMARK  224  A    between atoms: _550  and  _553
REMARK  225  A    between atoms: _553  and  _554
REMARK  226  A    between atoms: _554  and  _555
REMARK  227  A    between atoms: _562  and  _563
REMARK  228  A    between atoms: _563  and  _579
REMARK  229  A    between atoms: _564  and  _566
REMARK  230  A    between atoms: _566  and  _567
REMARK  231  A    between atoms: _567  and  _568
REMARK  232  A    between atoms: _572  and  _574
REMARK  233  A    between atoms: _574  and  _575
REMARK  234  A    between atoms: _574  and  _582
REMARK  235  A    between atoms: _575  and  _576
REMARK  236  A    between atoms: _576  and  _577
REMARK  237  A    between atoms: _577  and  _578
REMARK  238  A    between atoms: _578  and  _579
REMARK  239  A    between atoms: _584  and  _586
REMARK  240  A    between atoms: _586  and  _587
REMARK  241  A    between atoms: _586  and  _589
REMARK  242  A    between atoms: _589  and  _590
REMARK  243  A    between atoms: _593  and  _595
REMARK  244  A    between atoms: _595  and  _596
REMARK  245  A    between atoms: _598  and  _600
REMARK  246  A    between atoms: _600  and  _601
REMARK  247  A    between atoms: _604  and  _606
REMARK  248  A    between atoms: _606  and  _607
REMARK  249  A    between atoms: _606  and  _609
REMARK  250  A    between atoms: _609  and  _610
REMARK  251  A    between atoms: _615  and  _616
REMARK                            x       y       z     vdW  Elec       q    Type
REMARK                         _______ _______ _______ _____ _____    ______ ____
ROOT
ATOM      1  CB  HIS A   1      38.278  18.586  20.294  0.00  0.00    +0.072 C 
ENDROOT
BRANCH   1   2
ATOM      2  CG  HIS A   1      38.964  18.808  21.613  0.00  0.00    +0.082 A 
ATOM      3  CD2 HIS A   1      38.857  18.143  22.787  0.00  0.00    +0.115 A 
ATOM      4  NE2 HIS A   1      39.683  18.771  23.688  0.00  0.00    -0.221 NA
ATOM      5  CE1 HIS A   1      40.263  19.798  23.094  0.00  0.00    +0.199 A 
ATOM      6  ND1 HIS A   1      39.837  19.851  21.844  0.00  0.00    -0.227 NA
ENDBRANCH   1   2
BRANCH   1   7
ATOM      7  CA  HIS A   1      39.222  18.432  19.089  0.00  0.00    +0.139 C 
BRANCH   7   8
ATOM      8  N   HIS A   1      38.474  17.971  17.923  0.00  0.00    -0.239 NA
ATOM      9  H   HIS A   1      37.488  17.669  18.059  0.00  0.00    +0.142 HD
ENDBRANCH   7   8
BRANCH   7  10
ATOM     10  C   HIS A   1      40.366  17.457  19.383  0.00  0.00    +0.224 C 
ATOM     11  O   HIS A   1      41.509  17.878  19.539  0.00  0.00    -0.287 OA
ENDBRANCH   7  10
ENDBRANCH   1   7
TORSDOF 4
REMARK  Name = ../refined-set-2016/3l7d/3l7d_pocket.pdb
REMARK  251 active torsions:
REMARK  status: ('A' for Active; 'I' for Inactive)
REMARK    1  A    between atoms: _1  and  _3
REMARK    2  A    between atoms: _3  and  _4
REMARK    3  A    between atoms: _3  and  _6
REMARK    4  A    between atoms: _6  and  _7
REMARK    5  A    between atoms: _12  and  _13
REMARK    6  A    between atoms: _15  and  _17
REMARK    7  A    between atoms: _17  and  _18
REMARK    8  A    between atoms: _17  and  _20
REMARK    9  A    between atoms: _20  and  _21
REMARK   10  A    between atoms: _24  and  _26
REMARK   11  A    between atoms: _26  and  _27
REMARK   12  A    between atoms: _26  and  _29
REMARK   13  A    between atoms: _29  and  _30
REMARK   14  A    between atoms: _30  and  _31
REMARK   15  A    between atoms: _34  and  _36
REMARK   16  A    between atoms: _36  and  _37
REMARK   17  A    between atoms: _36  and  _39
REMARK   18  A    between atoms: _39  and  _40
REMARK   19  A    between atoms: _45  and  _47
REMARK   20  A    between atoms: _47  and  _48
REMARK   21  A    between atoms: _50  and  _52
REMARK   22  A    between atoms: _52  and  _53
REMARK   23  A    between atoms: _55  and  _57
REMARK   24  A    between atoms: _57  and  _58
REMARK   25  A    between atoms: _57  and  _60
REMARK   26  A    between atoms: _60  and  _61
REMARK   27  A    between atoms: _64  and  _66
REMARK   28  A    between atoms: _66  and  _67
REMARK   29  A    between atoms: _69  and  _71
REMARK   30  A    between atoms: _71  and  _72
REMARK   31  A    between atoms: _71  and  _74
REMARK   32  A    between atoms: _74  and  _75
REMARK   33  A    between atoms: _75  and  _76
REMARK   34  A    between atoms: _76  and  _77
REMARK   35  A    between atoms: _86  and  _88
REMARK   36  A    between atoms: _88  and  _89
REMARK   37  A    between atoms: _88  and  _91
REMARK   38  A    between atoms: _91  and  _92
REMARK   39  A    between atoms: _95  and  _97
REMARK   40  A    between atoms: _97  and  _98
REMARK   41  A    between atoms: _101  and  _103
REMARK   42  A    between atoms: _103  and  _104
REMARK   43  A    between atoms: _103  and  _106
REMARK   44  A    between atoms: _106  and  _107
REMARK   45  A    between atoms: _113  and  _115
REMARK   46  A    between atoms: _115  and  _116
REMARK   47  A    between atoms: _115  and  _118
REMARK   48  A    between atoms: _118  and  _119
REMARK   49  A    between atoms: _124  and  _125
REMARK   50  A    between atoms: _128  and  _129
REMARK   51  A    between atoms: _134  and  _136
REMARK   52  A    between atoms: _136  and  _137
REMARK   53  A    between atoms: _136  and  _139
REMARK   54  A    between atoms: _139  and  _140
REMARK   55  A    between atoms: _145  and  _147
REMARK   56  A    between atoms: _147  and  _148
REMARK   57  A    between atoms: _147  and  _150
REMARK   58  A    between atoms: _150  and  _151
REMARK   59  A    between atoms: _154  and  _156
REMARK   60  A    between atoms: _156  and  _157
REMARK   61  A    between atoms: _156  and  _159
REMARK   62  A    between atoms: _159  and  _160
REMARK   63  A    between atoms: _165  and  _167
REMARK   64  A    between atoms: _167  and  _168
REMARK   65  A    between atoms: _167  and  _170
REMARK   66  A    between atoms: _170  and  _171
REMARK   67  A    between atoms: _177  and  _179
REMARK   68  A    between atoms: _179  and  _180
REMARK   69  A    between atoms: _179  and  _182
REMARK   70  A    between atoms: _182  and  _183
REMARK   71  A    between atoms: _189  and  _191
REMARK   72  A    between atoms: _191  and  _192
REMARK   73  A    between atoms: _191  and  _194
REMARK   74  A    between atoms: _194  and  _195
REMARK   75  A    between atoms: _195  and  _196
REMARK   76  A    between atoms: _199  and  _201
REMARK   77  A    between atoms: _201  and  _202
REMARK   78  A    between atoms: _201  and  _204
REMARK   79  A    between atoms: _204  and  _205
REMARK   80  A    between atoms: _205  and  _206
REMARK   81  A    between atoms: _206  and  _207
REMARK   82  A    between atoms: _216  and  _218
REMARK   83  A    between atoms: _218  and  _219
REMARK   84  A    between atoms: _218  and  _221
REMARK   85  A    between atoms: _221  and  _222
REMARK   86  A    between atoms: _222  and  _223
REMARK   87  A    between atoms: _226  and  _228
REMARK   88  A    between atoms: _228  and  _229
REMARK   89  A    between atoms: _228  and  _231
REMARK   90  A    between atoms: _231  and  _232
REMARK   91  A    between atoms: _237  and  _239
REMARK   92  A    between atoms: _239  and  _240
REMARK   93  A    between atoms: _239  and  _242
REMARK   94  A    between atoms: _242  and  _243
REMARK   95  A    between atoms: _246  and  _248
REMARK   96  A    between atoms: _248  and  _249
REMARK   97  A    between atoms: _248  and  _251
REMARK   98  A    between atoms: _251  and  _252
REMARK   99  A    between atoms: _255  and  _257
REMARK  100  A    between atoms: _257  and  _258
REMARK  101  A    between atoms: _257  and  _260
REMARK  102  A    between atoms: _260  and  _261
REMARK  103  A    between atoms: _266  and  _268
REMARK  104  A    between atoms: _268  and  _269
REMARK  105  A    between atoms: _268  and  _271
REMARK  106  A    between atoms: _271  and  _272
REMARK  107  A    between atoms: _275  and  _277
REMARK  108  A    between atoms: _277  and  _278
REMARK  109  A    between atoms: _277  and  _280
REMARK  110  A    between atoms: _280  and  _281
REMARK  111  A    between atoms: _286  and  _288
REMARK  112  A    between atoms: _288  and  _289
REMARK  113  A    between atoms: _288  and  _291
REMARK  114  A    between atoms: _291  and  _292
REMARK  115  A    between atoms: _297  and  _299
REMARK  116  A    between atoms: _299  and  _300
REMARK  117  A    between atoms: _299  and  _302
REMARK  118  A    between atoms: _302  and  _303
REMARK  119  A    between atoms: _306  and  _308
REMARK  120  A    between atoms: _308  and  _309
REMARK  121  A    between atoms: _308  and  _311
REMARK  122  A    between atoms: _314  and  _316
REMARK  123  A    between atoms: _316  and  _317
REMARK  124  A    between atoms: _316  and  _319
REMARK  125  A    between atoms: _319  and  _320
REMARK  126  A    between atoms: _323  and  _325
REMARK  127  A    between atoms: _325  and  _326
REMARK  128  A    between atoms: _325  and  _328
REMARK  129  A    between atoms: _328  and  _329
REMARK  130  A    between atoms: _329  and  _330
REMARK  131  A    between atoms: _333  and  _335
REMARK  132  A    between atoms: _335  and  _336
REMARK  133  A    between atoms: _339  and  _341
REMARK  134  A    between atoms: _341  and  _342
REMARK  135  A    between atoms: _341  and  _344
REMARK  136  A    between atoms: _344  and  _345
REMARK  137  A    between atoms: _348  and  _350
REMARK  138  A    between atoms: _350  and  _351
REMARK  139  A    between atoms: _350  and  _353
REMARK  140  A    between atoms: _353  and  _354
REMARK  141  A    between atoms: _354  and  _355
REMARK  142  A    between atoms: _358  and  _360
REMARK  143  A    between atoms: _360  and  _361
REMARK  144  A    between atoms: _360  and  _363
REMARK  145  A    between atoms: _363  and  _364
REMARK  146  A    between atoms: _369  and  _371
REMARK  147  A    between atoms: _371  and  _372
REMARK  148  A    between atoms: _374  and  _376
REMARK  149  A    between atoms: _376  and  _377
REMARK  150  A    between atoms: _376  and  _379
REMARK  151  A    between atoms: _382  and  _384
REMARK  152  A    between atoms: _384  and  _385
REMARK  153  A    between atoms: _388  and  _390
REMARK  154  A    between atoms: _390  and  _391
REMARK  155  A    between atoms: _390  and  _393
REMARK  156  A    between atoms: _393  and  _394
REMARK  157  A    between atoms: _399  and  _401
REMARK  158  A    between atoms: _401  and  _402
REMARK  159  A    between atoms: _401  and  _404
REMARK  160  A    between atoms: _404  and  _405
REMARK  161  A    between atoms: _405  and  _406
REMARK  162  A    between atoms: _406  and  _407
REMARK  163  A    between atoms: _407  and  _408
REMARK  164  A    between atoms: _412  and  _414
REMARK  165  A    between atoms: _414  and  _415
REMARK  166  A    between atoms: _414  and  _417
REMARK  167  A    between atoms: _417  and  _418
REMARK  168  A    between atoms: _423  and  _425
REMARK  169  A    between atoms: _425  and  _426
REMARK  170  A    between atoms: _428  and  _430
REMARK  171  A    between atoms: _430  and  _431
REMARK  172  A    between atoms: _430  and  _433
REMARK  173  A    between atoms: _433  and  _434
REMARK  174  A    between atoms: _434  and  _435
REMARK  175  A    between atoms: _435  and  _436
REMARK  176  A    between atoms: _436  and  _437
REMARK  177  A    between atoms: _441  and  _443
REMARK  178  A    between atoms: _443  and  _444
REMARK  179  A    between atoms: _443  and  _446
REMARK  180  A    between atoms: _446  and  _447
REMARK  181  A    between atoms: _447  and  _448
REMARK  182  A    between atoms: _448  and  _449
REMARK  183  A    between atoms: _458  and  _460
REMARK  184  A    between atoms: _460  and  _461
REMARK  185  A    between atoms: _460  and  _463
REMARK  186  A    between atoms: _463  and  _464
REMARK  187  A    between atoms: _469  and  _470
REMARK  188  A    between atoms: _472  and  _474
REMARK  189  A    between atoms: _474  and  _475
REMARK  190  A    between atoms: _474  and  _477
REMARK  191  A    between atoms: _477  and  _478
REMARK  192  A    between atoms: _478  and  _479
REMARK  193  A    between atoms: _479  and  _480
REMARK  194  A    between atoms: _480  and  _481
REMARK  195  A    between atoms: _485  and  _487
REMARK  196  A    between atoms: _487  and  _488
REMARK  197  A    between atoms: _487  and  _490
REMARK  198  A    between atoms: _490  and  _491
REMARK  199  A    between atoms: _494  and  _496
REMARK  200  A    between atoms: _496  and  _497
REMARK  201  A    between atoms: _496  and  _499
REMARK  202  A    between atoms: _499  and  _500
REMARK  203  A    between atoms: _500  and  _501
REMARK  204  A    between atoms: _504  and  _506
REMARK  205  A    between atoms: _506  and  _507
REMARK  206  A    between atoms: _510  and  _512
REMARK  207  A    between atoms: _512  and  _513
REMARK  208  A    between atoms: _512  and  _515
REMARK  209  A    between atoms: _515  and  _516
REMARK  210  A    between atoms: _518  and  _520
REMARK  211  A    between atoms: _520  and  _521
REMARK  212  A    between atoms: _523  and  _525
REMARK  213  A    between atoms: _525  and  _526
REMARK  214  A    between atoms: _525  and  _528
REMARK  215  A    between atoms: _528  and  _529
REMARK  216  A    between atoms: _532  and  _534
REMARK  217  A    between atoms: _534  and  _535
REMARK  218  A    between atoms: _537  and  _539
REMARK  219  A    between atoms: _539  and  _540
REMARK  220  A    between atoms: _539  and  _542
REMARK  221  A    between atoms: _542  and  _543
REMARK  222  A    between atoms: _548  and  _550
REMARK  223  A    between atoms: _550  and  _551
REMARK  224  A    between atoms: _550  and  _553
REMARK  225  A    between atoms: _553  and  _554
REMARK  226  A    between atoms: _554  and  _555
REMARK  227  A    between atoms: _562  and  _563
REMARK  228  A    between atoms: _563  and  _579
REMARK  229  A    between atoms: _564  and  _566
REMARK  230  A    between atoms: _566  and  _567
REMARK  231  A    between atoms: _567  and  _568
REMARK  232  A    between atoms: _572  and  _574
REMARK  233  A    between atoms: _574  and  _575
REMARK  234  A    between atoms: _574  and  _582
REMARK  235  A    between atoms: _575  and  _576
REMARK  236  A    between atoms: _576  and  _577
REMARK  237  A    between atoms: _577  and  _578
REMARK  238  A    between atoms: _578  and  _579
REMARK  239  A    between atoms: _584  and  _586
REMARK  240  A    between atoms: _586  and  _587
REMARK  241  A    between atoms: _586  and  _589
REMARK  242  A    between atoms: _589  and  _590
REMARK  243  A    between atoms: _593  and  _595
REMARK  244  A    between atoms: _595  and  _596
REMARK  245  A    between atoms: _598  and  _600
REMARK  246  A    between atoms: _600  and  _601
REMARK  247  A    between atoms: _604  and  _606
REMARK  248  A    between atoms: _606  and  _607
REMARK  249  A    between atoms: _606  and  _609
REMARK  250  A    between atoms: _609  and  _610
REMARK  251  A    between atoms: _615  and  _616
REMARK                            x       y       z     vdW  Elec       q    Type
REMARK                         _______ _______ _______ _____ _____    ______ ____
ROOT
ATOM      1  CG  LYS A   1      36.425   8.684  25.185  0.00  0.00    -0.000 C 
ENDROOT
BRANCH   1   2
ATOM      2  CB  LYS A   1      35.520   9.849  24.816  0.00  0.00    +0.025 C 
BRANCH   2   3
ATOM      3  CA  LYS A   1      35.469  10.212  23.319  0.00  0.00    +0.133 C 
BRANCH   3   4
ATOM      4  N   LYS A   1      36.773  10.641  22.828  0.00  0.00    -0.239 NA
ATOM      5  H   LYS A   1      37.094  11.610  23.028  0.00  0.00    +0.142 HD
ENDBRANCH   3   4
BRANCH   3   6
ATOM      6  C   LYS A   1      34.518  11.384  23.102  0.00  0.00    +0.224 C 
ATOM      7  O   LYS A   1      34.466  12.292  23.914  0.00  0.00    -0.287 OA
ENDBRANCH   3   6
ENDBRANCH   2   3
ENDBRANCH   1   2
BRANCH   1   8
ATOM      8  CD  LYS A   1      35.876   7.351  24.700  0.00  0.00    -0.024 C 
BRANCH   8   9
ATOM      9  CE  LYS A   1      36.915   6.254  24.847  0.00  0.00    -0.086 C 
BRANCH   9  10
ATOM     10  NZ  LYS A   1      37.781   6.156  23.626  0.00  0.00    +0.380 N 
ATOM     11  HZ1 LYS A   1      38.480   5.398  23.758  0.00  0.00    -0.089 HD
ATOM     12  HZ2 LYS A   1      38.273   7.060  23.478  0.00  0.00    -0.089 HD
ATOM     13  HZ3 LYS A   1      37.188   5.942  22.798  0.00  0.00    -0.089 HD
ENDBRANCH   9  10
ENDBRANCH   8   9
ENDBRANCH   1   8
TORSDOF 7
REMARK  Name = ../refined-set-2016/3l7d/3l7d_pocket.pdb
REMARK  251 active torsions:
REMARK  status: ('A' for Active; 'I' for Inactive)
REMARK    1  A    between atoms: _1  and  _3
REMARK    2  A    between atoms: _3  and  _4
REMARK    3  A    between atoms: _3  and  _6
REMARK    4  A    between atoms: _6  and  _7
REMARK    5  A    between atoms: _12  and  _13
REMARK    6  A    between atoms: _15  and  _17
REMARK    7  A    between atoms: _17  and  _18
REMARK    8  A    between atoms: _17  and  _20
REMARK    9  A    between atoms: _20  and  _21
REMARK   10  A    between atoms: _24  and  _26
REMARK   11  A    between atoms: _26  and  _27
REMARK   12  A    between atoms: _26  and  _29
REMARK   13  A    between atoms: _29  and  _30
REMARK   14  A    between atoms: _30  and  _31
REMARK   15  A    between atoms: _34  and  _36
REMARK   16  A    between atoms: _36  and  _37
REMARK   17  A    between atoms: _36  and  _39
REMARK   18  A    between atoms: _39  and  _40
REMARK   19  A    between atoms: _45  and  _47
REMARK   20  A    between atoms: _47  and  _48
REMARK   21  A    between atoms: _50  and  _52
REMARK   22  A    between atoms: _52  and  _53
REMARK   23  A    between atoms: _55  and  _57
REMARK   24  A    between atoms: _57  and  _58
REMARK   25  A    between atoms: _57  and  _60
REMARK   26  A    between atoms: _60  and  _61
REMARK   27  A    between atoms: _64  and  _66
REMARK   28  A    between atoms: _66  and  _67
REMARK   29  A    between atoms: _69  and  _71
REMARK   30  A    between atoms: _71  and  _72
REMARK   31  A    between atoms: _71  and  _74
REMARK   32  A    between atoms: _74  and  _75
REMARK   33  A    between atoms: _75  and  _76
REMARK   34  A    between atoms: _76  and  _77
REMARK   35  A    between atoms: _86  and  _88
REMARK   36  A    between atoms: _88  and  _89
REMARK   37  A    between atoms: _88  and  _91
REMARK   38  A    between atoms: _91  and  _92
REMARK   39  A    between atoms: _95  and  _97
REMARK   40  A    between atoms: _97  and  _98
REMARK   41  A    between atoms: _101  and  _103
REMARK   42  A    between atoms: _103  and  _104
REMARK   43  A    between atoms: _103  and  _106
REMARK   44  A    between atoms: _106  and  _107
REMARK   45  A    between atoms: _113  and  _115
REMARK   46  A    between atoms: _115  and  _116
REMARK   47  A    between atoms: _115  and  _118
REMARK   48  A    between atoms: _118  and  _119
REMARK   49  A    between atoms: _124  and  _125
REMARK   50  A    between atoms: _128  and  _129
REMARK   51  A    between atoms: _134  and  _136
REMARK   52  A    between atoms: _136  and  _137
REMARK   53  A    between atoms: _136  and  _139
REMARK   54  A    between atoms: _139  and  _140
REMARK   55  A    between atoms: _145  and  _147
REMARK   56  A    between atoms: _147  and  _148
REMARK   57  A    between atoms: _147  and  _150
REMARK   58  A    between atoms: _150  and  _151
REMARK   59  A    between atoms: _154  and  _156
REMARK   60  A    between atoms: _156  and  _157
REMARK   61  A    between atoms: _156  and  _159
REMARK   62  A    between atoms: _159  and  _160
REMARK   63  A    between atoms: _165  and  _167
REMARK   64  A    between atoms: _167  and  _168
REMARK   65  A    between atoms: _167  and  _170
REMARK   66  A    between atoms: _170  and  _171
REMARK   67  A    between atoms: _177  and  _179
REMARK   68  A    between atoms: _179  and  _180
REMARK   69  A    between atoms: _179  and  _182
REMARK   70  A    between atoms: _182  and  _183
REMARK   71  A    between atoms: _189  and  _191
REMARK   72  A    between atoms: _191  and  _192
REMARK   73  A    between atoms: _191  and  _194
REMARK   74  A    between atoms: _194  and  _195
REMARK   75  A    between atoms: _195  and  _196
REMARK   76  A    between atoms: _199  and  _201
REMARK   77  A    between atoms: _201  and  _202
REMARK   78  A    between atoms: _201  and  _204
REMARK   79  A    between atoms: _204  and  _205
REMARK   80  A    between atoms: _205  and  _206
REMARK   81  A    between atoms: _206  and  _207
REMARK   82  A    between atoms: _216  and  _218
REMARK   83  A    between atoms: _218  and  _219
REMARK   84  A    between atoms: _218  and  _221
REMARK   85  A    between atoms: _221  and  _222
REMARK   86  A    between atoms: _222  and  _223
REMARK   87  A    between atoms: _226  and  _228
REMARK   88  A    between atoms: _228  and  _229
REMARK   89  A    between atoms: _228  and  _231
REMARK   90  A    between atoms: _231  and  _232
REMARK   91  A    between atoms: _237  and  _239
REMARK   92  A    between atoms: _239  and  _240
REMARK   93  A    between atoms: _239  and  _242
REMARK   94  A    between atoms: _242  and  _243
REMARK   95  A    between atoms: _246  and  _248
REMARK   96  A    between atoms: _248  and  _249
REMARK   97  A    between atoms: _248  and  _251
REMARK   98  A    between atoms: _251  and  _252
REMARK   99  A    between atoms: _255  and  _257
REMARK  100  A    between atoms: _257  and  _258
REMARK  101  A    between atoms: _257  and  _260
REMARK  102  A    between atoms: _260  and  _261
REMARK  103  A    between atoms: _266  and  _268
REMARK  104  A    between atoms: _268  and  _269
REMARK  105  A    between atoms: _268  and  _271
REMARK  106  A    between atoms: _271  and  _272
REMARK  107  A    between atoms: _275  and  _277
REMARK  108  A    between atoms: _277  and  _278
REMARK  109  A    between atoms: _277  and  _280
REMARK  110  A    between atoms: _280  and  _281
REMARK  111  A    between atoms: _286  and  _288
REMARK  112  A    between atoms: _288  and  _289
REMARK  113  A    between atoms: _288  and  _291
REMARK  114  A    between atoms: _291  and  _292
REMARK  115  A    between atoms: _297  and  _299
REMARK  116  A    between atoms: _299  and  _300
REMARK  117  A    between atoms: _299  and  _302
REMARK  118  A    between atoms: _302  and  _303
REMARK  119  A    between atoms: _306  and  _308
REMARK  120  A    between atoms: _308  and  _309
REMARK  121  A    between atoms: _308  and  _311
REMARK  122  A    between atoms: _314  and  _316
REMARK  123  A    between atoms: _316  and  _317
REMARK  124  A    between atoms: _316  and  _319
REMARK  125  A    between atoms: _319  and  _320
REMARK  126  A    between atoms: _323  and  _325
REMARK  127  A    between atoms: _325  and  _326
REMARK  128  A    between atoms: _325  and  _328
REMARK  129  A    between atoms: _328  and  _329
REMARK  130  A    between atoms: _329  and  _330
REMARK  131  A    between atoms: _333  and  _335
REMARK  132  A    between atoms: _335  and  _336
REMARK  133  A    between atoms: _339  and  _341
REMARK  134  A    between atoms: _341  and  _342
REMARK  135  A    between atoms: _341  and  _344
REMARK  136  A    between atoms: _344  and  _345
REMARK  137  A    between atoms: _348  and  _350
REMARK  138  A    between atoms: _350  and  _351
REMARK  139  A    between atoms: _350  and  _353
REMARK  140  A    between atoms: _353  and  _354
REMARK  141  A    between atoms: _354  and  _355
REMARK  142  A    between atoms: _358  and  _360
REMARK  143  A    between atoms: _360  and  _361
REMARK  144  A    between atoms: _360  and  _363
REMARK  145  A    between atoms: _363  and  _364
REMARK  146  A    between atoms: _369  and  _371
REMARK  147  A    between atoms: _371  and  _372
REMARK  148  A    between atoms: _374  and  _376
REMARK  149  A    between atoms: _376  and  _377
REMARK  150  A    between atoms: _376  and  _379
REMARK  151  A    between atoms: _382  and  _384
REMARK  152  A    between atoms: _384  and  _385
REMARK  153  A    between atoms: _388  and  _390
REMARK  154  A    between atoms: _390  and  _391
REMARK  155  A    between atoms: _390  and  _393
REMARK  156  A    between atoms: _393  and  _394
REMARK  157  A    between atoms: _399  and  _401
REMARK  158  A    between atoms: _401  and  _402
REMARK  159  A    between atoms: _401  and  _404
REMARK  160  A    between atoms: _404  and  _405
REMARK  161  A    between atoms: _405  and  _406
REMARK  162  A    between atoms: _406  and  _407
REMARK  163  A    between atoms: _407  and  _408
REMARK  164  A    between atoms: _412  and  _414
REMARK  165  A    between atoms: _414  and  _415
REMARK  166  A    between atoms: _414  and  _417
REMARK  167  A    between atoms: _417  and  _418
REMARK  168  A    between atoms: _423  and  _425
REMARK  169  A    between atoms: _425  and  _426
REMARK  170  A    between atoms: _428  and  _430
REMARK  171  A    between atoms: _430  and  _431
REMARK  172  A    between atoms: _430  and  _433
REMARK  173  A    between atoms: _433  and  _434
REMARK  174  A    between atoms: _434  and  _435
REMARK  175  A    between atoms: _435  and  _436
REMARK  176  A    between atoms: _436  and  _437
REMARK  177  A    between atoms: _441  and  _443
REMARK  178  A    between atoms: _443  and  _444
REMARK  179  A    between atoms: _443  and  _446
REMARK  180  A    between atoms: _446  and  _447
REMARK  181  A    between atoms: _447  and  _448
REMARK  182  A    between atoms: _448  and  _449
REMARK  183  A    between atoms: _458  and  _460
REMARK  184  A    between atoms: _460  and  _461
REMARK  185  A    between atoms: _460  and  _463
REMARK  186  A    between atoms: _463  and  _464
REMARK  187  A    between atoms: _469  and  _470
REMARK  188  A    between atoms: _472  and  _474
REMARK  189  A    between atoms: _474  and  _475
REMARK  190  A    between atoms: _474  and  _477
REMARK  191  A    between atoms: _477  and  _478
REMARK  192  A    between atoms: _478  and  _479
REMARK  193  A    between atoms: _479  and  _480
REMARK  194  A    between atoms: _480  and  _481
REMARK  195  A    between atoms: _485  and  _487
REMARK  196  A    between atoms: _487  and  _488
REMARK  197  A    between atoms: _487  and  _490
REMARK  198  A    between atoms: _490  and  _491
REMARK  199  A    between atoms: _494  and  _496
REMARK  200  A    between atoms: _496  and  _497
REMARK  201  A    between atoms: _496  and  _499
REMARK  202  A    between atoms: _499  and  _500
REMARK  203  A    between atoms: _500  and  _501
REMARK  204  A    between atoms: _504  and  _506
REMARK  205  A    between atoms: _506  and  _507
REMARK  206  A    between atoms: _510  and  _512
REMARK  207  A    between atoms: _512  and  _513
REMARK  208  A    between atoms: _512  and  _515
REMARK  209  A    between atoms: _515  and  _516
REMARK  210  A    between atoms: _518  and  _520
REMARK  211  A    between atoms: _520  and  _521
REMARK  212  A    between atoms: _523  and  _525
REMARK  213  A    between atoms: _525  and  _526
REMARK  214  A    between atoms: _525  and  _528
REMARK  215  A    between atoms: _528  and  _529
REMARK  216  A    between atoms: _532  and  _534
REMARK  217  A    between atoms: _534  and  _535
REMARK  218  A    between atoms: _537  and  _539
REMARK  219  A    between atoms: _539  and  _540
REMARK  220  A    between atoms: _539  and  _542
REMARK  221  A    between atoms: _542  and  _543
REMARK  222  A    between atoms: _548  and  _550
REMARK  223  A    between atoms: _550  and  _551
REMARK  224  A    between atoms: _550  and  _553
REMARK  225  A    between atoms: _553  and  _554
REMARK  226  A    between atoms: _554  and  _555
REMARK  227  A    between atoms: _562  and  _563
REMARK  228  A    between atoms: _563  and  _579
REMARK  229  A    between atoms: _564  and  _566
REMARK  230  A    between atoms: _566  and  _567
REMARK  231  A    between atoms: _567  and  _568
REMARK  232  A    between atoms: _572  and  _574
REMARK  233  A    between atoms: _574  and  _575
REMARK  234  A    between atoms: _574  and  _582
REMARK  235  A    between atoms: _575  and  _576
REMARK  236  A    between atoms: _576  and  _577
REMARK  237  A    between atoms: _577  and  _578
REMARK  238  A    between atoms: _578  and  _579
REMARK  239  A    between atoms: _584  and  _586
REMARK  240  A    between atoms: _586  and  _587
REMARK  241  A    between atoms: _586  and  _589
REMARK  242  A    between atoms: _589  and  _590
REMARK  243  A    between atoms: _593  and  _595
REMARK  244  A    between atoms: _595  and  _596
REMARK  245  A    between atoms: _598  and  _600
REMARK  246  A    between atoms: _600  and  _601
REMARK  247  A    between atoms: _604  and  _606
REMARK  248  A    between atoms: _606  and  _607
REMARK  249  A    between atoms: _606  and  _609
REMARK  250  A    between atoms: _609  and  _610
REMARK  251  A    between atoms: _615  and  _616
REMARK                            x       y       z     vdW  Elec       q    Type
REMARK                         _______ _______ _______ _____ _____    ______ ____
ROOT
ATOM      1  CA  ASN A   1      30.556  14.038  24.270  0.00  0.00    +0.154 C 
ENDROOT
BRANCH   1   2
ATOM      2  C   ASN A   1      29.145  13.563  23.922  0.00  0.00    +0.239 C 
ATOM      3  N   GLY A   2      28.290  13.494  24.932  0.00  0.00    -0.297 N 
ATOM      4  H   GLY A   2      28.636  13.666  25.898  0.00  0.00    +0.150 HD
ATOM      5  O   ASN A   1      28.848  13.269  22.766  0.00  0.00    -0.274 OA
BRANCH   3   6
ATOM      6  CA  GLY A   2      26.873  13.183  24.730  0.00  0.00    +0.163 C 
BRANCH   6   7
ATOM      7  C   GLY A   2      26.045  13.838  25.820  0.00  0.00    +0.229 C 
ATOM      8  O   GLY A   2      26.593  14.488  26.716  0.00  0.00    -0.286 OA
ENDBRANCH   6   7
ENDBRANCH   3   6
ENDBRANCH   1   2
BRANCH   1   9
ATOM      9  N   ASN A   1      31.499  13.741  23.195  0.00  0.00    -0.238 NA
ATOM     10  H   ASN A   1      31.980  14.538  22.730  0.00  0.00    +0.142 HD
ENDBRANCH   1   9
BRANCH   1  11
ATOM     11  CB  ASN A   1      30.538  15.552  24.555  0.00  0.00    +0.111 C 
BRANCH  11  12
ATOM     12  CG  ASN A   1      31.688  16.002  25.488  0.00  0.00    +0.221 C 
ATOM     13  ND2 ASN A   1      32.369  15.044  26.101  0.00  0.00    -0.329 N 
ATOM     14 HD21 ASN A   1      33.148  15.290  26.745  0.00  0.00    +0.145 HD
ATOM     15 HD22 ASN A   1      32.125  14.046  25.938  0.00  0.00    +0.145 HD
ATOM     16  OD1 ASN A   1      31.943  17.209  25.651  0.00  0.00    -0.275 OA
ENDBRANCH  11  12
ENDBRANCH   1  11
TORSDOF 6
REMARK  Name = ../refined-set-2016/3l7d/3l7d_pocket.pdb
REMARK  251 active torsions:
REMARK  status: ('A' for Active; 'I' for Inactive)
REMARK    1  A    between atoms: _1  and  _3
REMARK    2  A    between atoms: _3  and  _4
REMARK    3  A    between atoms: _3  and  _6
REMARK    4  A    between atoms: _6  and  _7
REMARK    5  A    between atoms: _12  and  _13
REMARK    6  A    between atoms: _15  and  _17
REMARK    7  A    between atoms: _17  and  _18
REMARK    8  A    between atoms: _17  and  _20
REMARK    9  A    between atoms: _20  and  _21
REMARK   10  A    between atoms: _24  and  _26
REMARK   11  A    between atoms: _26  and  _27
REMARK   12  A    between atoms: _26  and  _29
REMARK   13  A    between atoms: _29  and  _30
REMARK   14  A    between atoms: _30  and  _31
REMARK   15  A    between atoms: _34  and  _36
REMARK   16  A    between atoms: _36  and  _37
REMARK   17  A    between atoms: _36  and  _39
REMARK   18  A    between atoms: _39  and  _40
REMARK   19  A    between atoms: _45  and  _47
REMARK   20  A    between atoms: _47  and  _48
REMARK   21  A    between atoms: _50  and  _52
REMARK   22  A    between atoms: _52  and  _53
REMARK   23  A    between atoms: _55  and  _57
REMARK   24  A    between atoms: _57  and  _58
REMARK   25  A    between atoms: _57  and  _60
REMARK   26  A    between atoms: _60  and  _61
REMARK   27  A    between atoms: _64  and  _66
REMARK   28  A    between atoms: _66  and  _67
REMARK   29  A    between atoms: _69  and  _71
REMARK   30  A    between atoms: _71  and  _72
REMARK   31  A    between atoms: _71  and  _74
REMARK   32  A    between atoms: _74  and  _75
REMARK   33  A    between atoms: _75  and  _76
REMARK   34  A    between atoms: _76  and  _77
REMARK   35  A    between atoms: _86  and  _88
REMARK   36  A    between atoms: _88  and  _89
REMARK   37  A    between atoms: _88  and  _91
REMARK   38  A    between atoms: _91  and  _92
REMARK   39  A    between atoms: _95  and  _97
REMARK   40  A    between atoms: _97  and  _98
REMARK   41  A    between atoms: _101  and  _103
REMARK   42  A    between atoms: _103  and  _104
REMARK   43  A    between atoms: _103  and  _106
REMARK   44  A    between atoms: _106  and  _107
REMARK   45  A    between atoms: _113  and  _115
REMARK   46  A    between atoms: _115  and  _116
REMARK   47  A    between atoms: _115  and  _118
REMARK   48  A    between atoms: _118  and  _119
REMARK   49  A    between atoms: _124  and  _125
REMARK   50  A    between atoms: _128  and  _129
REMARK   51  A    between atoms: _134  and  _136
REMARK   52  A    between atoms: _136  and  _137
REMARK   53  A    between atoms: _136  and  _139
REMARK   54  A    between atoms: _139  and  _140
REMARK   55  A    between atoms: _145  and  _147
REMARK   56  A    between atoms: _147  and  _148
REMARK   57  A    between atoms: _147  and  _150
REMARK   58  A    between atoms: _150  and  _151
REMARK   59  A    between atoms: _154  and  _156
REMARK   60  A    between atoms: _156  and  _157
REMARK   61  A    between atoms: _156  and  _159
REMARK   62  A    between atoms: _159  and  _160
REMARK   63  A    between atoms: _165  and  _167
REMARK   64  A    between atoms: _167  and  _168
REMARK   65  A    between atoms: _167  and  _170
REMARK   66  A    between atoms: _170  and  _171
REMARK   67  A    between atoms: _177  and  _179
REMARK   68  A    between atoms: _179  and  _180
REMARK   69  A    between atoms: _179  and  _182
REMARK   70  A    between atoms: _182  and  _183
REMARK   71  A    between atoms: _189  and  _191
REMARK   72  A    between atoms: _191  and  _192
REMARK   73  A    between atoms: _191  and  _194
REMARK   74  A    between atoms: _194  and  _195
REMARK   75  A    between atoms: _195  and  _196
REMARK   76  A    between atoms: _199  and  _201
REMARK   77  A    between atoms: _201  and  _202
REMARK   78  A    between atoms: _201  and  _204
REMARK   79  A    between atoms: _204  and  _205
REMARK   80  A    between atoms: _205  and  _206
REMARK   81  A    between atoms: _206  and  _207
REMARK   82  A    between atoms: _216  and  _218
REMARK   83  A    between atoms: _218  and  _219
REMARK   84  A    between atoms: _218  and  _221
REMARK   85  A    between atoms: _221  and  _222
REMARK   86  A    between atoms: _222  and  _223
REMARK   87  A    between atoms: _226  and  _228
REMARK   88  A    between atoms: _228  and  _229
REMARK   89  A    between atoms: _228  and  _231
REMARK   90  A    between atoms: _231  and  _232
REMARK   91  A    between atoms: _237  and  _239
REMARK   92  A    between atoms: _239  and  _240
REMARK   93  A    between atoms: _239  and  _242
REMARK   94  A    between atoms: _242  and  _243
REMARK   95  A    between atoms: _246  and  _248
REMARK   96  A    between atoms: _248  and  _249
REMARK   97  A    between atoms: _248  and  _251
REMARK   98  A    between atoms: _251  and  _252
REMARK   99  A    between atoms: _255  and  _257
REMARK  100  A    between atoms: _257  and  _258
REMARK  101  A    between atoms: _257  and  _260
REMARK  102  A    between atoms: _260  and  _261
REMARK  103  A    between atoms: _266  and  _268
REMARK  104  A    between atoms: _268  and  _269
REMARK  105  A    between atoms: _268  and  _271
REMARK  106  A    between atoms: _271  and  _272
REMARK  107  A    between atoms: _275  and  _277
REMARK  108  A    between atoms: _277  and  _278
REMARK  109  A    between atoms: _277  and  _280
REMARK  110  A    between atoms: _280  and  _281
REMARK  111  A    between atoms: _286  and  _288
REMARK  112  A    between atoms: _288  and  _289
REMARK  113  A    between atoms: _288  and  _291
REMARK  114  A    between atoms: _291  and  _292
REMARK  115  A    between atoms: _297  and  _299
REMARK  116  A    between atoms: _299  and  _300
REMARK  117  A    between atoms: _299  and  _302
REMARK  118  A    between atoms: _302  and  _303
REMARK  119  A    between atoms: _306  and  _308
REMARK  120  A    between atoms: _308  and  _309
REMARK  121  A    between atoms: _308  and  _311
REMARK  122  A    between atoms: _314  and  _316
REMARK  123  A    between atoms: _316  and  _317
REMARK  124  A    between atoms: _316  and  _319
REMARK  125  A    between atoms: _319  and  _320
REMARK  126  A    between atoms: _323  and  _325
REMARK  127  A    between atoms: _325  and  _326
REMARK  128  A    between atoms: _325  and  _328
REMARK  129  A    between atoms: _328  and  _329
REMARK  130  A    between atoms: _329  and  _330
REMARK  131  A    between atoms: _333  and  _335
REMARK  132  A    between atoms: _335  and  _336
REMARK  133  A    between atoms: _339  and  _341
REMARK  134  A    between atoms: _341  and  _342
REMARK  135  A    between atoms: _341  and  _344
REMARK  136  A    between atoms: _344  and  _345
REMARK  137  A    between atoms: _348  and  _350
REMARK  138  A    between atoms: _350  and  _351
REMARK  139  A    between atoms: _350  and  _353
REMARK  140  A    between atoms: _353  and  _354
REMARK  141  A    between atoms: _354  and  _355
REMARK  142  A    between atoms: _358  and  _360
REMARK  143  A    between atoms: _360  and  _361
REMARK  144  A    between atoms: _360  and  _363
REMARK  145  A    between atoms: _363  and  _364
REMARK  146  A    between atoms: _369  and  _371
REMARK  147  A    between atoms: _371  and  _372
REMARK  148  A    between atoms: _374  and  _376
REMARK  149  A    between atoms: _376  and  _377
REMARK  150  A    between atoms: _376  and  _379
REMARK  151  A    between atoms: _382  and  _384
REMARK  152  A    between atoms: _384  and  _385
REMARK  153  A    between atoms: _388  and  _390
REMARK  154  A    between atoms: _390  and  _391
REMARK  155  A    between atoms: _390  and  _393
REMARK  156  A    between atoms: _393  and  _394
REMARK  157  A    between atoms: _399  and  _401
REMARK  158  A    between atoms: _401  and  _402
REMARK  159  A    between atoms: _401  and  _404
REMARK  160  A    between atoms: _404  and  _405
REMARK  161  A    between atoms: _405  and  _406
REMARK  162  A    between atoms: _406  and  _407
REMARK  163  A    between atoms: _407  and  _408
REMARK  164  A    between atoms: _412  and  _414
REMARK  165  A    between atoms: _414  and  _415
REMARK  166  A    between atoms: _414  and  _417
REMARK  167  A    between atoms: _417  and  _418
REMARK  168  A    between atoms: _423  and  _425
REMARK  169  A    between atoms: _425  and  _426
REMARK  170  A    between atoms: _428  and  _430
REMARK  171  A    between atoms: _430  and  _431
REMARK  172  A    between atoms: _430  and  _433
REMARK  173  A    between atoms: _433  and  _434
REMARK  174  A    between atoms: _434  and  _435
REMARK  175  A    between atoms: _435  and  _436
REMARK  176  A    between atoms: _436  and  _437
REMARK  177  A    between atoms: _441  and  _443
REMARK  178  A    between atoms: _443  and  _444
REMARK  179  A    between atoms: _443  and  _446
REMARK  180  A    between atoms: _446  and  _447
REMARK  181  A    between atoms: _447  and  _448
REMARK  182  A    between atoms: _448  and  _449
REMARK  183  A    between atoms: _458  and  _460
REMARK  184  A    between atoms: _460  and  _461
REMARK  185  A    between atoms: _460  and  _463
REMARK  186  A    between atoms: _463  and  _464
REMARK  187  A    between atoms: _469  and  _470
REMARK  188  A    between atoms: _472  and  _474
REMARK  189  A    between atoms: _474  and  _475
REMARK  190  A    between atoms: _474  and  _477
REMARK  191  A    between atoms: _477  and  _478
REMARK  192  A    between atoms: _478  and  _479
REMARK  193  A    between atoms: _479  and  _480
REMARK  194  A    between atoms: _480  and  _481
REMARK  195  A    between atoms: _485  and  _487
REMARK  196  A    between atoms: _487  and  _488
REMARK  197  A    between atoms: _487  and  _490
REMARK  198  A    between atoms: _490  and  _491
REMARK  199  A    between atoms: _494  and  _496
REMARK  200  A    between atoms: _496  and  _497
REMARK  201  A    between atoms: _496  and  _499
REMARK  202  A    between atoms: _499  and  _500
REMARK  203  A    between atoms: _500  and  _501
REMARK  204  A    between atoms: _504  and  _506
REMARK  205  A    between atoms: _506  and  _507
REMARK  206  A    between atoms: _510  and  _512
REMARK  207  A    between atoms: _512  and  _513
REMARK  208  A    between atoms: _512  and  _515
REMARK  209  A    between atoms: _515  and  _516
REMARK  210  A    between atoms: _518  and  _520
REMARK  211  A    between atoms: _520  and  _521
REMARK  212  A    between atoms: _523  and  _525
REMARK  213  A    between atoms: _525  and  _526
REMARK  214  A    between atoms: _525  and  _528
REMARK  215  A    between atoms: _528  and  _529
REMARK  216  A    between atoms: _532  and  _534
REMARK  217  A    between atoms: _534  and  _535
REMARK  218  A    between atoms: _537  and  _539
REMARK  219  A    between atoms: _539  and  _540
REMARK  220  A    between atoms: _539  and  _542
REMARK  221  A    between atoms: _542  and  _543
REMARK  222  A    between atoms: _548  and  _550
REMARK  223  A    between atoms: _550  and  _551
REMARK  224  A    between atoms: _550  and  _553
REMARK  225  A    between atoms: _553  and  _554
REMARK  226  A    between atoms: _554  and  _555
REMARK  227  A    between atoms: _562  and  _563
REMARK  228  A    between atoms: _563  and  _579
REMARK  229  A    between atoms: _564  and  _566
REMARK  230  A    between atoms: _566  and  _567
REMARK  231  A    between atoms: _567  and  _568
REMARK  232  A    between atoms: _572  and  _574
REMARK  233  A    between atoms: _574  and  _575
REMARK  234  A    between atoms: _574  and  _582
REMARK  235  A    between atoms: _575  and  _576
REMARK  236  A    between atoms: _576  and  _577
REMARK  237  A    between atoms: _577  and  _578
REMARK  238  A    between atoms: _578  and  _579
REMARK  239  A    between atoms: _584  and  _586
REMARK  240  A    between atoms: _586  and  _587
REMARK  241  A    between atoms: _586  and  _589
REMARK  242  A    between atoms: _589  and  _590
REMARK  243  A    between atoms: _593  and  _595
REMARK  244  A    between atoms: _595  and  _596
REMARK  245  A    between atoms: _598  and  _600
REMARK  246  A    between atoms: _600  and  _601
REMARK  247  A    between atoms: _604  and  _606
REMARK  248  A    between atoms: _606  and  _607
REMARK  249  A    between atoms: _606  and  _609
REMARK  250  A    between atoms: _609  and  _610
REMARK  251  A    between atoms: _615  and  _616
REMARK                            x       y       z     vdW  Elec       q    Type
REMARK                         _______ _______ _______ _____ _____    ______ ____
ROOT
ATOM      1  C   LYS A   1      26.213  30.472  27.326  0.00  0.00    +0.238 C 
ATOM      2  N   ARG A   2      27.265  30.150  28.067  0.00  0.00    -0.298 N 
ATOM      3  H   ARG A   2      27.539  29.151  28.164  0.00  0.00    +0.150 HD
ATOM      4  O   LYS A   1      25.796  31.630  27.233  0.00  0.00    -0.274 OA
ENDROOT
BRANCH   1   5
ATOM      5  CA  LYS A   1      25.506  29.340  26.570  0.00  0.00    +0.145 C 
BRANCH   5   6
ATOM      6  N   LYS A   1      24.195  29.887  26.208  0.00  0.00    -0.238 NA
ATOM      7  H   LYS A   1      23.938  30.821  26.587  0.00  0.00    +0.142 HD
ENDBRANCH   5   6
BRANCH   5   8
ATOM      8  CB  LYS A   1      26.322  28.961  25.323  0.00  0.00    +0.026 C 
BRANCH   8   9
ATOM      9  CG  LYS A   1      26.455  30.087  24.283  0.00  0.00    -0.000 C 
BRANCH   9  10
ATOM     10  CD  LYS A   1      27.086  29.631  22.951  0.00  0.00    -0.024 C 
BRANCH  10  11
ATOM     11  CE  LYS A   1      26.197  28.654  22.170  0.00  0.00    -0.086 C 
BRANCH  11  12
ATOM     12  NZ  LYS A   1      26.740  27.253  22.101  0.00  0.00    +0.380 N 
ATOM     13  HZ1 LYS A   1      26.841  26.874  23.064  0.00  0.00    -0.089 HD
ATOM     14  HZ2 LYS A   1      27.669  27.265  21.633  0.00  0.00    -0.089 HD
ATOM     15  HZ3 LYS A   1      26.085  26.655  21.559  0.00  0.00    -0.089 HD
ENDBRANCH  11  12
ENDBRANCH  10  11
ENDBRANCH   9  10
ENDBRANCH   8   9
ENDBRANCH   5   8
ENDBRANCH   1   5
BRANCH   2  16
ATOM     16  CA  ARG A   2      28.043  31.182  28.748  0.00  0.00    +0.137 C 
BRANCH  16  17
ATOM     17  C   ARG A   2      28.597  32.221  27.755  0.00  0.00    +0.227 C 
ATOM     18  O   ARG A   2      28.923  31.899  26.601  0.00  0.00    -0.286 OA
ENDBRANCH  16  17
BRANCH  16  19
ATOM     19  CB  ARG A   2      29.167  30.558  29.587  0.00  0.00    +0.031 C 
BRANCH  19  20
ATOM     20  CG  ARG A   2      28.678  29.766  30.792  0.00  0.00    +0.045 C 
BRANCH  20  21
ATOM     21  CD  ARG A   2      28.188  30.658  31.946  0.00  0.00    +0.174 C 
BRANCH  21  22
ATOM     22  NE  ARG A   2      29.253  31.505  32.504  0.00  0.00    -0.265 N 
ATOM     23  CZ  ARG A   2      29.869  31.303  33.671  0.00  0.00    +0.342 C 
ATOM     24  NH2 ARG A   2      29.545  30.286  34.455  0.00  0.00    -0.292 N 
ATOM     25 HH21 ARG A   2      30.039  30.149  35.360  0.00  0.00    +0.255 HD
ATOM     26 HH22 ARG A   2      28.797  29.624  34.166  0.00  0.00    +0.255 HD
ATOM     27  NH1 ARG A   2      30.817  32.139  34.071  0.00  0.00    -0.292 N 
ATOM     28 HH11 ARG A   2      31.298  31.983  34.980  0.00  0.00    +0.255 HD
ATOM     29 HH12 ARG A   2      31.080  32.951  33.476  0.00  0.00    +0.255 HD
ATOM     30  HE  ARG A   2      29.551  32.329  31.943  0.00  0.00    +0.259 HD
ENDBRANCH  21  22
ENDBRANCH  20  21
ENDBRANCH  19  20
ENDBRANCH  16  19
ENDBRANCH   2  16
TORSDOF 13
REMARK  Name = ../refined-set-2016/3l7d/3l7d_pocket.pdb
REMARK  251 active torsions:
REMARK  status: ('A' for Active; 'I' for Inactive)
REMARK    1  A    between atoms: _1  and  _3
REMARK    2  A    between atoms: _3  and  _4
REMARK    3  A    between atoms: _3  and  _6
REMARK    4  A    between atoms: _6  and  _7
REMARK    5  A    between atoms: _12  and  _13
REMARK    6  A    between atoms: _15  and  _17
REMARK    7  A    between atoms: _17  and  _18
REMARK    8  A    between atoms: _17  and  _20
REMARK    9  A    between atoms: _20  and  _21
REMARK   10  A    between atoms: _24  and  _26
REMARK   11  A    between atoms: _26  and  _27
REMARK   12  A    between atoms: _26  and  _29
REMARK   13  A    between atoms: _29  and  _30
REMARK   14  A    between atoms: _30  and  _31
REMARK   15  A    between atoms: _34  and  _36
REMARK   16  A    between atoms: _36  and  _37
REMARK   17  A    between atoms: _36  and  _39
REMARK   18  A    between atoms: _39  and  _40
REMARK   19  A    between atoms: _45  and  _47
REMARK   20  A    between atoms: _47  and  _48
REMARK   21  A    between atoms: _50  and  _52
REMARK   22  A    between atoms: _52  and  _53
REMARK   23  A    between atoms: _55  and  _57
REMARK   24  A    between atoms: _57  and  _58
REMARK   25  A    between atoms: _57  and  _60
REMARK   26  A    between atoms: _60  and  _61
REMARK   27  A    between atoms: _64  and  _66
REMARK   28  A    between atoms: _66  and  _67
REMARK   29  A    between atoms: _69  and  _71
REMARK   30  A    between atoms: _71  and  _72
REMARK   31  A    between atoms: _71  and  _74
REMARK   32  A    between atoms: _74  and  _75
REMARK   33  A    between atoms: _75  and  _76
REMARK   34  A    between atoms: _76  and  _77
REMARK   35  A    between atoms: _86  and  _88
REMARK   36  A    between atoms: _88  and  _89
REMARK   37  A    between atoms: _88  and  _91
REMARK   38  A    between atoms: _91  and  _92
REMARK   39  A    between atoms: _95  and  _97
REMARK   40  A    between atoms: _97  and  _98
REMARK   41  A    between atoms: _101  and  _103
REMARK   42  A    between atoms: _103  and  _104
REMARK   43  A    between atoms: _103  and  _106
REMARK   44  A    between atoms: _106  and  _107
REMARK   45  A    between atoms: _113  and  _115
REMARK   46  A    between atoms: _115  and  _116
REMARK   47  A    between atoms: _115  and  _118
REMARK   48  A    between atoms: _118  and  _119
REMARK   49  A    between atoms: _124  and  _125
REMARK   50  A    between atoms: _128  and  _129
REMARK   51  A    between atoms: _134  and  _136
REMARK   52  A    between atoms: _136  and  _137
REMARK   53  A    between atoms: _136  and  _139
REMARK   54  A    between atoms: _139  and  _140
REMARK   55  A    between atoms: _145  and  _147
REMARK   56  A    between atoms: _147  and  _148
REMARK   57  A    between atoms: _147  and  _150
REMARK   58  A    between atoms: _150  and  _151
REMARK   59  A    between atoms: _154  and  _156
REMARK   60  A    between atoms: _156  and  _157
REMARK   61  A    between atoms: _156  and  _159
REMARK   62  A    between atoms: _159  and  _160
REMARK   63  A    between atoms: _165  and  _167
REMARK   64  A    between atoms: _167  and  _168
REMARK   65  A    between atoms: _167  and  _170
REMARK   66  A    between atoms: _170  and  _171
REMARK   67  A    between atoms: _177  and  _179
REMARK   68  A    between atoms: _179  and  _180
REMARK   69  A    between atoms: _179  and  _182
REMARK   70  A    between atoms: _182  and  _183
REMARK   71  A    between atoms: _189  and  _191
REMARK   72  A    between atoms: _191  and  _192
REMARK   73  A    between atoms: _191  and  _194
REMARK   74  A    between atoms: _194  and  _195
REMARK   75  A    between atoms: _195  and  _196
REMARK   76  A    between atoms: _199  and  _201
REMARK   77  A    between atoms: _201  and  _202
REMARK   78  A    between atoms: _201  and  _204
REMARK   79  A    between atoms: _204  and  _205
REMARK   80  A    between atoms: _205  and  _206
REMARK   81  A    between atoms: _206  and  _207
REMARK   82  A    between atoms: _216  and  _218
REMARK   83  A    between atoms: _218  and  _219
REMARK   84  A    between atoms: _218  and  _221
REMARK   85  A    between atoms: _221  and  _222
REMARK   86  A    between atoms: _222  and  _223
REMARK   87  A    between atoms: _226  and  _228
REMARK   88  A    between atoms: _228  and  _229
REMARK   89  A    between atoms: _228  and  _231
REMARK   90  A    between atoms: _231  and  _232
REMARK   91  A    between atoms: _237  and  _239
REMARK   92  A    between atoms: _239  and  _240
REMARK   93  A    between atoms: _239  and  _242
REMARK   94  A    between atoms: _242  and  _243
REMARK   95  A    between atoms: _246  and  _248
REMARK   96  A    between atoms: _248  and  _249
REMARK   97  A    between atoms: _248  and  _251
REMARK   98  A    between atoms: _251  and  _252
REMARK   99  A    between atoms: _255  and  _257
REMARK  100  A    between atoms: _257  and  _258
REMARK  101  A    between atoms: _257  and  _260
REMARK  102  A    between atoms: _260  and  _261
REMARK  103  A    between atoms: _266  and  _268
REMARK  104  A    between atoms: _268  and  _269
REMARK  105  A    between atoms: _268  and  _271
REMARK  106  A    between atoms: _271  and  _272
REMARK  107  A    between atoms: _275  and  _277
REMARK  108  A    between atoms: _277  and  _278
REMARK  109  A    between atoms: _277  and  _280
REMARK  110  A    between atoms: _280  and  _281
REMARK  111  A    between atoms: _286  and  _288
REMARK  112  A    between atoms: _288  and  _289
REMARK  113  A    between atoms: _288  and  _291
REMARK  114  A    between atoms: _291  and  _292
REMARK  115  A    between atoms: _297  and  _299
REMARK  116  A    between atoms: _299  and  _300
REMARK  117  A    between atoms: _299  and  _302
REMARK  118  A    between atoms: _302  and  _303
REMARK  119  A    between atoms: _306  and  _308
REMARK  120  A    between atoms: _308  and  _309
REMARK  121  A    between atoms: _308  and  _311
REMARK  122  A    between atoms: _314  and  _316
REMARK  123  A    between atoms: _316  and  _317
REMARK  124  A    between atoms: _316  and  _319
REMARK  125  A    between atoms: _319  and  _320
REMARK  126  A    between atoms: _323  and  _325
REMARK  127  A    between atoms: _325  and  _326
REMARK  128  A    between atoms: _325  and  _328
REMARK  129  A    between atoms: _328  and  _329
REMARK  130  A    between atoms: _329  and  _330
REMARK  131  A    between atoms: _333  and  _335
REMARK  132  A    between atoms: _335  and  _336
REMARK  133  A    between atoms: _339  and  _341
REMARK  134  A    between atoms: _341  and  _342
REMARK  135  A    between atoms: _341  and  _344
REMARK  136  A    between atoms: _344  and  _345
REMARK  137  A    between atoms: _348  and  _350
REMARK  138  A    between atoms: _350  and  _351
REMARK  139  A    between atoms: _350  and  _353
REMARK  140  A    between atoms: _353  and  _354
REMARK  141  A    between atoms: _354  and  _355
REMARK  142  A    between atoms: _358  and  _360
REMARK  143  A    between atoms: _360  and  _361
REMARK  144  A    between atoms: _360  and  _363
REMARK  145  A    between atoms: _363  and  _364
REMARK  146  A    between atoms: _369  and  _371
REMARK  147  A    between atoms: _371  and  _372
REMARK  148  A    between atoms: _374  and  _376
REMARK  149  A    between atoms: _376  and  _377
REMARK  150  A    between atoms: _376  and  _379
REMARK  151  A    between atoms: _382  and  _384
REMARK  152  A    between atoms: _384  and  _385
REMARK  153  A    between atoms: _388  and  _390
REMARK  154  A    between atoms: _390  and  _391
REMARK  155  A    between atoms: _390  and  _393
REMARK  156  A    between atoms: _393  and  _394
REMARK  157  A    between atoms: _399  and  _401
REMARK  158  A    between atoms: _401  and  _402
REMARK  159  A    between atoms: _401  and  _404
REMARK  160  A    between atoms: _404  and  _405
REMARK  161  A    between atoms: _405  and  _406
REMARK  162  A    between atoms: _406  and  _407
REMARK  163  A    between atoms: _407  and  _408
REMARK  164  A    between atoms: _412  and  _414
REMARK  165  A    between atoms: _414  and  _415
REMARK  166  A    between atoms: _414  and  _417
REMARK  167  A    between atoms: _417  and  _418
REMARK  168  A    between atoms: _423  and  _425
REMARK  169  A    between atoms: _425  and  _426
REMARK  170  A    between atoms: _428  and  _430
REMARK  171  A    between atoms: _430  and  _431
REMARK  172  A    between atoms: _430  and  _433
REMARK  173  A    between atoms: _433  and  _434
REMARK  174  A    between atoms: _434  and  _435
REMARK  175  A    between atoms: _435  and  _436
REMARK  176  A    between atoms: _436  and  _437
REMARK  177  A    between atoms: _441  and  _443
REMARK  178  A    between atoms: _443  and  _444
REMARK  179  A    between atoms: _443  and  _446
REMARK  180  A    between atoms: _446  and  _447
REMARK  181  A    between atoms: _447  and  _448
REMARK  182  A    between atoms: _448  and  _449
REMARK  183  A    between atoms: _458  and  _460
REMARK  184  A    between atoms: _460  and  _461
REMARK  185  A    between atoms: _460  and  _463
REMARK  186  A    between atoms: _463  and  _464
REMARK  187  A    between atoms: _469  and  _470
REMARK  188  A    between atoms: _472  and  _474
REMARK  189  A    between atoms: _474  and  _475
REMARK  190  A    between atoms: _474  and  _477
REMARK  191  A    between atoms: _477  and  _478
REMARK  192  A    between atoms: _478  and  _479
REMARK  193  A    between atoms: _479  and  _480
REMARK  194  A    between atoms: _480  and  _481
REMARK  195  A    between atoms: _485  and  _487
REMARK  196  A    between atoms: _487  and  _488
REMARK  197  A    between atoms: _487  and  _490
REMARK  198  A    between atoms: _490  and  _491
REMARK  199  A    between atoms: _494  and  _496
REMARK  200  A    between atoms: _496  and  _497
REMARK  201  A    between atoms: _496  and  _499
REMARK  202  A    between atoms: _499  and  _500
REMARK  203  A    between atoms: _500  and  _501
REMARK  204  A    between atoms: _504  and  _506
REMARK  205  A    between atoms: _506  and  _507
REMARK  206  A    between atoms: _510  and  _512
REMARK  207  A    between atoms: _512  and  _513
REMARK  208  A    between atoms: _512  and  _515
REMARK  209  A    between atoms: _515  and  _516
REMARK  210  A    between atoms: _518  and  _520
REMARK  211  A    between atoms: _520  and  _521
REMARK  212  A    between atoms: _523  and  _525
REMARK  213  A    between atoms: _525  and  _526
REMARK  214  A    between atoms: _525  and  _528
REMARK  215  A    between atoms: _528  and  _529
REMARK  216  A    between atoms: _532  and  _534
REMARK  217  A    between atoms: _534  and  _535
REMARK  218  A    between atoms: _537  and  _539
REMARK  219  A    between atoms: _539  and  _540
REMARK  220  A    between atoms: _539  and  _542
REMARK  221  A    between atoms: _542  and  _543
REMARK  222  A    between atoms: _548  and  _550
REMARK  223  A    between atoms: _550  and  _551
REMARK  224  A    between atoms: _550  and  _553
REMARK  225  A    between atoms: _553  and  _554
REMARK  226  A    between atoms: _554  and  _555
REMARK  227  A    between atoms: _562  and  _563
REMARK  228  A    between atoms: _563  and  _579
REMARK  229  A    between atoms: _564  and  _566
REMARK  230  A    between atoms: _566  and  _567
REMARK  231  A    between atoms: _567  and  _568
REMARK  232  A    between atoms: _572  and  _574
REMARK  233  A    between atoms: _574  and  _575
REMARK  234  A    between atoms: _574  and  _582
REMARK  235  A    between atoms: _575  and  _576
REMARK  236  A    between atoms: _576  and  _577
REMARK  237  A    between atoms: _577  and  _578
REMARK  238  A    between atoms: _578  and  _579
REMARK  239  A    between atoms: _584  and  _586
REMARK  240  A    between atoms: _586  and  _587
REMARK  241  A    between atoms: _586  and  _589
REMARK  242  A    between atoms: _589  and  _590
REMARK  243  A    between atoms: _593  and  _595
REMARK  244  A    between atoms: _595  and  _596
REMARK  245  A    between atoms: _598  and  _600
REMARK  246  A    between atoms: _600  and  _601
REMARK  247  A    between atoms: _604  and  _606
REMARK  248  A    between atoms: _606  and  _607
REMARK  249  A    between atoms: _606  and  _609
REMARK  250  A    between atoms: _609  and  _610
REMARK  251  A    between atoms: _615  and  _616
REMARK                            x       y       z     vdW  Elec       q    Type
REMARK                         _______ _______ _______ _____ _____    ______ ____
ROOT
ATOM      1  C   TYR A   1      33.615  32.242  20.643  0.00  0.00    +0.239 C 
ATOM      2  N   LYS A   2      32.589  32.337  21.486  0.00  0.00    -0.298 N 
ATOM      3  H   LYS A   2      32.735  32.788  22.412  0.00  0.00    +0.150 HD
ATOM      4  O   TYR A   1      33.528  31.723  19.522  0.00  0.00    -0.274 OA
ENDROOT
BRANCH   1   5
ATOM      5  CA  TYR A   1      34.948  32.821  21.114  0.00  0.00    +0.149 C 
BRANCH   5   6
ATOM      6  N   TYR A   1      34.802  33.908  22.101  0.00  0.00    -0.238 NA
ATOM      7  H   TYR A   1      35.091  33.761  23.089  0.00  0.00    +0.142 HD
ENDBRANCH   5   6
BRANCH   5   8
ATOM      8  CB  TYR A   1      35.934  31.722  21.571  0.00  0.00    +0.053 C 
BRANCH   8   9
ATOM      9  CG  TYR A   1      35.391  30.594  22.432  0.00  0.00    -0.020 A 
ATOM     10  CD2 TYR A   1      35.616  30.572  23.811  0.00  0.00    -0.001 A 
ATOM     11  CE2 TYR A   1      35.147  29.527  24.605  0.00  0.00    +0.036 A 
ATOM     12  CZ  TYR A   1      34.467  28.482  24.015  0.00  0.00    +0.134 A 
ATOM     13  CE1 TYR A   1      34.245  28.465  22.643  0.00  0.00    +0.036 A 
ATOM     14  CD1 TYR A   1      34.718  29.509  21.860  0.00  0.00    -0.001 A 
BRANCH  12  15
ATOM     15  OH  TYR A   1      34.009  27.433  24.787  0.00  0.00    -0.506 OA
ATOM     16  HH  TYR A   1      33.547  26.776  24.208  0.00  0.00    +0.292 HD
ENDBRANCH  12  15
ENDBRANCH   8   9
ENDBRANCH   5   8
ENDBRANCH   1   5
BRANCH   2  17
ATOM     17  CA  LYS A   2      31.257  31.823  21.146  0.00  0.00    +0.137 C 
BRANCH  17  18
ATOM     18  C   LYS A   2      30.507  32.787  20.191  0.00  0.00    +0.227 C 
ATOM     19  O   LYS A   2      29.484  32.428  19.599  0.00  0.00    -0.286 OA
ENDBRANCH  17  18
BRANCH  17  20
ATOM     20  CB  LYS A   2      30.450  31.559  22.424  0.00  0.00    +0.028 C 
BRANCH  20  21
ATOM     21  CG  LYS A   2      30.907  30.317  23.219  0.00  0.00    -0.000 C 
BRANCH  21  22
ATOM     22  CD  LYS A   2      30.782  30.540  24.730  0.00  0.00    -0.024 C 
BRANCH  22  23
ATOM     23  CE  LYS A   2      30.834  29.256  25.596  0.00  0.00    -0.086 C 
BRANCH  23  24
ATOM     24  NZ  LYS A   2      30.086  28.066  24.968  0.00  0.00    +0.380 N 
ATOM     25  HZ1 LYS A   2      30.160  27.241  25.597  0.00  0.00    -0.089 HD
ATOM     26  HZ2 LYS A   2      29.085  28.317  24.839  0.00  0.00    -0.089 HD
ATOM     27  HZ3 LYS A   2      30.510  27.839  24.046  0.00  0.00    -0.089 HD
ENDBRANCH  23  24
ENDBRANCH  22  23
ENDBRANCH  21  22
ENDBRANCH  20  21
ENDBRANCH  17  20
ENDBRANCH   2  17
TORSDOF 12
REMARK  Name = ../refined-set-2016/3l7d/3l7d_pocket.pdb
REMARK  251 active torsions:
REMARK  status: ('A' for Active; 'I' for Inactive)
REMARK    1  A    between atoms: _1  and  _3
REMARK    2  A    between atoms: _3  and  _4
REMARK    3  A    between atoms: _3  and  _6
REMARK    4  A    between atoms: _6  and  _7
REMARK    5  A    between atoms: _12  and  _13
REMARK    6  A    between atoms: _15  and  _17
REMARK    7  A    between atoms: _17  and  _18
REMARK    8  A    between atoms: _17  and  _20
REMARK    9  A    between atoms: _20  and  _21
REMARK   10  A    between atoms: _24  and  _26
REMARK   11  A    between atoms: _26  and  _27
REMARK   12  A    between atoms: _26  and  _29
REMARK   13  A    between atoms: _29  and  _30
REMARK   14  A    between atoms: _30  and  _31
REMARK   15  A    between atoms: _34  and  _36
REMARK   16  A    between atoms: _36  and  _37
REMARK   17  A    between atoms: _36  and  _39
REMARK   18  A    between atoms: _39  and  _40
REMARK   19  A    between atoms: _45  and  _47
REMARK   20  A    between atoms: _47  and  _48
REMARK   21  A    between atoms: _50  and  _52
REMARK   22  A    between atoms: _52  and  _53
REMARK   23  A    between atoms: _55  and  _57
REMARK   24  A    between atoms: _57  and  _58
REMARK   25  A    between atoms: _57  and  _60
REMARK   26  A    between atoms: _60  and  _61
REMARK   27  A    between atoms: _64  and  _66
REMARK   28  A    between atoms: _66  and  _67
REMARK   29  A    between atoms: _69  and  _71
REMARK   30  A    between atoms: _71  and  _72
REMARK   31  A    between atoms: _71  and  _74
REMARK   32  A    between atoms: _74  and  _75
REMARK   33  A    between atoms: _75  and  _76
REMARK   34  A    between atoms: _76  and  _77
REMARK   35  A    between atoms: _86  and  _88
REMARK   36  A    between atoms: _88  and  _89
REMARK   37  A    between atoms: _88  and  _91
REMARK   38  A    between atoms: _91  and  _92
REMARK   39  A    between atoms: _95  and  _97
REMARK   40  A    between atoms: _97  and  _98
REMARK   41  A    between atoms: _101  and  _103
REMARK   42  A    between atoms: _103  and  _104
REMARK   43  A    between atoms: _103  and  _106
REMARK   44  A    between atoms: _106  and  _107
REMARK   45  A    between atoms: _113  and  _115
REMARK   46  A    between atoms: _115  and  _116
REMARK   47  A    between atoms: _115  and  _118
REMARK   48  A    between atoms: _118  and  _119
REMARK   49  A    between atoms: _124  and  _125
REMARK   50  A    between atoms: _128  and  _129
REMARK   51  A    between atoms: _134  and  _136
REMARK   52  A    between atoms: _136  and  _137
REMARK   53  A    between atoms: _136  and  _139
REMARK   54  A    between atoms: _139  and  _140
REMARK   55  A    between atoms: _145  and  _147
REMARK   56  A    between atoms: _147  and  _148
REMARK   57  A    between atoms: _147  and  _150
REMARK   58  A    between atoms: _150  and  _151
REMARK   59  A    between atoms: _154  and  _156
REMARK   60  A    between atoms: _156  and  _157
REMARK   61  A    between atoms: _156  and  _159
REMARK   62  A    between atoms: _159  and  _160
REMARK   63  A    between atoms: _165  and  _167
REMARK   64  A    between atoms: _167  and  _168
REMARK   65  A    between atoms: _167  and  _170
REMARK   66  A    between atoms: _170  and  _171
REMARK   67  A    between atoms: _177  and  _179
REMARK   68  A    between atoms: _179  and  _180
REMARK   69  A    between atoms: _179  and  _182
REMARK   70  A    between atoms: _182  and  _183
REMARK   71  A    between atoms: _189  and  _191
REMARK   72  A    between atoms: _191  and  _192
REMARK   73  A    between atoms: _191  and  _194
REMARK   74  A    between atoms: _194  and  _195
REMARK   75  A    between atoms: _195  and  _196
REMARK   76  A    between atoms: _199  and  _201
REMARK   77  A    between atoms: _201  and  _202
REMARK   78  A    between atoms: _201  and  _204
REMARK   79  A    between atoms: _204  and  _205
REMARK   80  A    between atoms: _205  and  _206
REMARK   81  A    between atoms: _206  and  _207
REMARK   82  A    between atoms: _216  and  _218
REMARK   83  A    between atoms: _218  and  _219
REMARK   84  A    between atoms: _218  and  _221
REMARK   85  A    between atoms: _221  and  _222
REMARK   86  A    between atoms: _222  and  _223
REMARK   87  A    between atoms: _226  and  _228
REMARK   88  A    between atoms: _228  and  _229
REMARK   89  A    between atoms: _228  and  _231
REMARK   90  A    between atoms: _231  and  _232
REMARK   91  A    between atoms: _237  and  _239
REMARK   92  A    between atoms: _239  and  _240
REMARK   93  A    between atoms: _239  and  _242
REMARK   94  A    between atoms: _242  and  _243
REMARK   95  A    between atoms: _246  and  _248
REMARK   96  A    between atoms: _248  and  _249
REMARK   97  A    between atoms: _248  and  _251
REMARK   98  A    between atoms: _251  and  _252
REMARK   99  A    between atoms: _255  and  _257
REMARK  100  A    between atoms: _257  and  _258
REMARK  101  A    between atoms: _257  and  _260
REMARK  102  A    between atoms: _260  and  _261
REMARK  103  A    between atoms: _266  and  _268
REMARK  104  A    between atoms: _268  and  _269
REMARK  105  A    between atoms: _268  and  _271
REMARK  106  A    between atoms: _271  and  _272
REMARK  107  A    between atoms: _275  and  _277
REMARK  108  A    between atoms: _277  and  _278
REMARK  109  A    between atoms: _277  and  _280
REMARK  110  A    between atoms: _280  and  _281
REMARK  111  A    between atoms: _286  and  _288
REMARK  112  A    between atoms: _288  and  _289
REMARK  113  A    between atoms: _288  and  _291
REMARK  114  A    between atoms: _291  and  _292
REMARK  115  A    between atoms: _297  and  _299
REMARK  116  A    between atoms: _299  and  _300
REMARK  117  A    between atoms: _299  and  _302
REMARK  118  A    between atoms: _302  and  _303
REMARK  119  A    between atoms: _306  and  _308
REMARK  120  A    between atoms: _308  and  _309
REMARK  121  A    between atoms: _308  and  _311
REMARK  122  A    between atoms: _314  and  _316
REMARK  123  A    between atoms: _316  and  _317
REMARK  124  A    between atoms: _316  and  _319
REMARK  125  A    between atoms: _319  and  _320
REMARK  126  A    between atoms: _323  and  _325
REMARK  127  A    between atoms: _325  and  _326
REMARK  128  A    between atoms: _325  and  _328
REMARK  129  A    between atoms: _328  and  _329
REMARK  130  A    between atoms: _329  and  _330
REMARK  131  A    between atoms: _333  and  _335
REMARK  132  A    between atoms: _335  and  _336
REMARK  133  A    between atoms: _339  and  _341
REMARK  134  A    between atoms: _341  and  _342
REMARK  135  A    between atoms: _341  and  _344
REMARK  136  A    between atoms: _344  and  _345
REMARK  137  A    between atoms: _348  and  _350
REMARK  138  A    between atoms: _350  and  _351
REMARK  139  A    between atoms: _350  and  _353
REMARK  140  A    between atoms: _353  and  _354
REMARK  141  A    between atoms: _354  and  _355
REMARK  142  A    between atoms: _358  and  _360
REMARK  143  A    between atoms: _360  and  _361
REMARK  144  A    between atoms: _360  and  _363
REMARK  145  A    between atoms: _363  and  _364
REMARK  146  A    between atoms: _369  and  _371
REMARK  147  A    between atoms: _371  and  _372
REMARK  148  A    between atoms: _374  and  _376
REMARK  149  A    between atoms: _376  and  _377
REMARK  150  A    between atoms: _376  and  _379
REMARK  151  A    between atoms: _382  and  _384
REMARK  152  A    between atoms: _384  and  _385
REMARK  153  A    between atoms: _388  and  _390
REMARK  154  A    between atoms: _390  and  _391
REMARK  155  A    between atoms: _390  and  _393
REMARK  156  A    between atoms: _393  and  _394
REMARK  157  A    between atoms: _399  and  _401
REMARK  158  A    between atoms: _401  and  _402
REMARK  159  A    between atoms: _401  and  _404
REMARK  160  A    between atoms: _404  and  _405
REMARK  161  A    between atoms: _405  and  _406
REMARK  162  A    between atoms: _406  and  _407
REMARK  163  A    between atoms: _407  and  _408
REMARK  164  A    between atoms: _412  and  _414
REMARK  165  A    between atoms: _414  and  _415
REMARK  166  A    between atoms: _414  and  _417
REMARK  167  A    between atoms: _417  and  _418
REMARK  168  A    between atoms: _423  and  _425
REMARK  169  A    between atoms: _425  and  _426
REMARK  170  A    between atoms: _428  and  _430
REMARK  171  A    between atoms: _430  and  _431
REMARK  172  A    between atoms: _430  and  _433
REMARK  173  A    between atoms: _433  and  _434
REMARK  174  A    between atoms: _434  and  _435
REMARK  175  A    between atoms: _435  and  _436
REMARK  176  A    between atoms: _436  and  _437
REMARK  177  A    between atoms: _441  and  _443
REMARK  178  A    between atoms: _443  and  _444
REMARK  179  A    between atoms: _443  and  _446
REMARK  180  A    between atoms: _446  and  _447
REMARK  181  A    between atoms: _447  and  _448
REMARK  182  A    between atoms: _448  and  _449
REMARK  183  A    between atoms: _458  and  _460
REMARK  184  A    between atoms: _460  and  _461
REMARK  185  A    between atoms: _460  and  _463
REMARK  186  A    between atoms: _463  and  _464
REMARK  187  A    between atoms: _469  and  _470
REMARK  188  A    between atoms: _472  and  _474
REMARK  189  A    between atoms: _474  and  _475
REMARK  190  A    between atoms: _474  and  _477
REMARK  191  A    between atoms: _477  and  _478
REMARK  192  A    between atoms: _478  and  _479
REMARK  193  A    between atoms: _479  and  _480
REMARK  194  A    between atoms: _480  and  _481
REMARK  195  A    between atoms: _485  and  _487
REMARK  196  A    between atoms: _487  and  _488
REMARK  197  A    between atoms: _487  and  _490
REMARK  198  A    between atoms: _490  and  _491
REMARK  199  A    between atoms: _494  and  _496
REMARK  200  A    between atoms: _496  and  _497
REMARK  201  A    between atoms: _496  and  _499
REMARK  202  A    between atoms: _499  and  _500
REMARK  203  A    between atoms: _500  and  _501
REMARK  204  A    between atoms: _504  and  _506
REMARK  205  A    between atoms: _506  and  _507
REMARK  206  A    between atoms: _510  and  _512
REMARK  207  A    between atoms: _512  and  _513
REMARK  208  A    between atoms: _512  and  _515
REMARK  209  A    between atoms: _515  and  _516
REMARK  210  A    between atoms: _518  and  _520
REMARK  211  A    between atoms: _520  and  _521
REMARK  212  A    between atoms: _523  and  _525
REMARK  213  A    between atoms: _525  and  _526
REMARK  214  A    between atoms: _525  and  _528
REMARK  215  A    between atoms: _528  and  _529
REMARK  216  A    between atoms: _532  and  _534
REMARK  217  A    between atoms: _534  and  _535
REMARK  218  A    between atoms: _537  and  _539
REMARK  219  A    between atoms: _539  and  _540
REMARK  220  A    between atoms: _539  and  _542
REMARK  221  A    between atoms: _542  and  _543
REMARK  222  A    between atoms: _548  and  _550
REMARK  223  A    between atoms: _550  and  _551
REMARK  224  A    between atoms: _550  and  _553
REMARK  225  A    between atoms: _553  and  _554
REMARK  226  A    between atoms: _554  and  _555
REMARK  227  A    between atoms: _562  and  _563
REMARK  228  A    between atoms: _563  and  _579
REMARK  229  A    between atoms: _564  and  _566
REMARK  230  A    between atoms: _566  and  _567
REMARK  231  A    between atoms: _567  and  _568
REMARK  232  A    between atoms: _572  and  _574
REMARK  233  A    between atoms: _574  and  _575
REMARK  234  A    between atoms: _574  and  _582
REMARK  235  A    between atoms: _575  and  _576
REMARK  236  A    between atoms: _576  and  _577
REMARK  237  A    between atoms: _577  and  _578
REMARK  238  A    between atoms: _578  and  _579
REMARK  239  A    between atoms: _584  and  _586
REMARK  240  A    between atoms: _586  and  _587
REMARK  241  A    between atoms: _586  and  _589
REMARK  242  A    between atoms: _589  and  _590
REMARK  243  A    between atoms: _593  and  _595
REMARK  244  A    between atoms: _595  and  _596
REMARK  245  A    between atoms: _598  and  _600
REMARK  246  A    between atoms: _600  and  _601
REMARK  247  A    between atoms: _604  and  _606
REMARK  248  A    between atoms: _606  and  _607
REMARK  249  A    between atoms: _606  and  _609
REMARK  250  A    between atoms: _609  and  _610
REMARK  251  A    between atoms: _615  and  _616
REMARK                            x       y       z     vdW  Elec       q    Type
REMARK                         _______ _______ _______ _____ _____    ______ ____
ROOT
ATOM      1  CA  GLY A   7      24.003  22.423  24.094  0.00  0.00    +0.176 C 
ENDROOT
BRANCH   1   2
ATOM      2  C   GLY A   7      23.527  22.107  22.681  0.00  0.00    +0.243 C 
ATOM      3  O   GLY A   7      22.340  21.852  22.464  0.00  0.00    -0.273 OA
ATOM      4  N   ASN A   8      24.457  22.103  21.720  0.00  0.00    -0.297 N 
ATOM      5  H   ASN A   8      25.435  22.364  21.960  0.00  0.00    +0.150 HD
BRANCH   4   6
ATOM      6  CA  ASN A   8      24.133  21.738  20.329  0.00  0.00    +0.158 C 
BRANCH   6   7
ATOM      7  C   ASN A   8      23.344  20.432  20.186  0.00  0.00    +0.241 C 
ATOM      8  N   MET A   9      23.760  19.426  20.955  0.00  0.00    -0.297 N 
ATOM      9  H   MET A   9      24.581  19.579  21.575  0.00  0.00    +0.150 HD
ATOM     10  O   ASN A   8      22.389  20.340  19.390  0.00  0.00    -0.273 OA
BRANCH   8  11
ATOM     11  CA  MET A   9      23.112  18.122  20.962  0.00  0.00    +0.149 C 
BRANCH  11  12
ATOM     12  C   MET A   9      21.699  18.160  21.555  0.00  0.00    +0.241 C 
ATOM     13  N   UNK A  10      21.511  18.952  22.612  0.00  0.00    -0.298 N 
ATOM     14  H   UNK A  10      22.317  19.488  22.993  0.00  0.00    +0.150 HD
ATOM     15  O   MET A   9      20.798  17.459  21.068  0.00  0.00    -0.273 OA
BRANCH  13  16
ATOM     16  C   UNK A  10      20.191  19.087  23.254  0.00  0.00    +0.137 C 
BRANCH  16  17
ATOM     17  C   UNK A  10      19.149  19.632  22.276  0.00  0.00    +0.227 C 
ATOM     18  O   UNK A  10      17.992  19.175  22.266  0.00  0.00    -0.286 OA
ENDBRANCH  16  17
BRANCH  16  19
ATOM     19  C   UNK A  10      20.270  19.980  24.512  0.00  0.00    +0.028 C 
BRANCH  19  20
ATOM     20  C   UNK A  10      21.425  19.638  25.490  0.00  0.00    -0.000 C 
BRANCH  20  21
ATOM     21  C   UNK A  10      21.503  20.592  26.687  0.00  0.00    -0.023 C 
BRANCH  21  22
ATOM     22  C   UNK A  10      22.784  20.365  27.488  0.00  0.00    -0.082 C 
BRANCH  22  23
ATOM     23  N   UNK A  10      23.039  21.456  28.479  0.00  0.00    +0.384 N 
ATOM     24  H   UNK A  10      22.220  22.096  28.498  0.00  0.00    -0.084 HD
ATOM     25  H   UNK A  10      23.171  21.036  29.421  0.00  0.00    -0.084 HD
BRANCH  23  26
ATOM     26  C   UNK A  10      24.134  22.156  28.154  0.00  0.00    -0.070 C 
BRANCH  26  27
ATOM     27  C   UNK A  10      24.320  23.394  29.012  0.00  0.00    +0.064 C 
ATOM     28  C   UNK A  10      25.466  24.199  28.811  0.00  0.00    +0.010 C 
ATOM     29  C   UNK A  10      25.659  25.346  29.565  0.00  0.00    +0.093 C 
ATOM     30  N   UNK A  10      24.737  25.687  30.538  0.00  0.00    -0.246 NA
ATOM     31  C   UNK A  10      23.623  24.912  30.769  0.00  0.00    +0.094 C 
ATOM     32  C   UNK A  10      22.665  25.347  31.842  0.00  0.00    +0.055 C 
ATOM     33  C   UNK A  10      23.393  23.753  30.009  0.00  0.00    +0.188 C 
ATOM     34  O   UNK A  10      22.373  23.059  30.229  0.00  0.00    -0.290 OA
BRANCH  28  35
ATOM     35  C   UNK A  10      26.485  23.883  27.741  0.00  0.00    +0.178 C 
BRANCH  35  36
ATOM     36  O   UNK A  10      26.130  24.467  26.460  0.00  0.00    -0.266 OA
BRANCH  36  37
ATOM     37  P   UNK A  10      27.170  24.779  25.271  0.00  0.00    +0.533 P 
ATOM     38  O   UNK A  10      27.708  23.455  24.841  0.00  0.00    -0.115 OA
ATOM     39  O   UNK A  10      28.167  25.676  25.895  0.00  0.00    -0.115 OA
ATOM     40  O   UNK A  10      26.296  25.468  24.314  0.00  0.00    -0.222 OA
ENDBRANCH  36  37
ENDBRANCH  35  36
ENDBRANCH  28  35
ENDBRANCH  26  27
ENDBRANCH  23  26
ENDBRANCH  22  23
ENDBRANCH  21  22
ENDBRANCH  20  21
ENDBRANCH  19  20
ENDBRANCH  16  19
ENDBRANCH  13  16
ENDBRANCH  11  12
BRANCH  11  41
ATOM     41  CB  MET A   9      23.967  17.115  21.738  0.00  0.00    +0.041 C 
BRANCH  41  42
ATOM     42  CG  MET A   9      25.365  16.958  21.175  0.00  0.00    +0.060 C 
BRANCH  42  43
ATOM     43  SD  MET A   9      26.417  16.043  22.296  0.00  0.00    -0.139 S 
ATOM     44  CE  MET A   9      28.014  16.346  21.530  0.00  0.00    +0.069 C 
ENDBRANCH  42  43
ENDBRANCH  41  42
ENDBRANCH  11  41
ENDBRANCH   8  11
ENDBRANCH   6   7
BRANCH   6  45
ATOM     45  CB  ASN A   8      25.383  21.730  19.412  0.00  0.00    +0.114 C 
BRANCH  45  46
ATOM     46  CG  ASN A   8      26.564  20.915  19.972  0.00  0.00    +0.222 C 
ATOM     47  ND2 ASN A   8      26.370  20.239  21.096  0.00  0.00    -0.329 N 
ATOM     48 HD21 ASN A   8      25.452  20.290  21.582  0.00  0.00    +0.145 HD
ATOM     49 HD22 ASN A   8      27.136  19.658  21.492  0.00  0.00    +0.145 HD
ATOM     50  OD1 ASN A   8      27.647  20.883  19.357  0.00  0.00    -0.275 OA
ENDBRANCH  45  46
ENDBRANCH   6  45
ENDBRANCH   4   6
ENDBRANCH   1   2
BRANCH   1  52
ATOM     51  C   THR A   6      25.363  20.399  24.174  0.00  0.00    +0.243 C 
ATOM     52  N   GLY A   7      25.259  21.710  24.370  0.00  0.00    -0.295 N 
ATOM     53  H   GLY A   7      26.080  22.240  24.725  0.00  0.00    +0.150 HD
ATOM     54  O   THR A   6      24.398  19.685  23.874  0.00  0.00    -0.273 OA
BRANCH  51  55
ATOM     55  CA  THR A   6      26.760  19.794  24.324  0.00  0.00    +0.176 C 
BRANCH  55  57
ATOM     56  C   GLY A   5      28.797  20.524  23.171  0.00  0.00    +0.243 C 
ATOM     57  N   THR A   6      27.779  20.794  23.987  0.00  0.00    -0.295 N 
ATOM     58  H   THR A   6      27.704  21.746  24.399  0.00  0.00    +0.150 HD
ATOM     59  O   GLY A   5      29.069  19.382  22.779  0.00  0.00    -0.273 OA
BRANCH  56  60
ATOM     60  CA  GLY A   5      29.668  21.697  22.758  0.00  0.00    +0.176 C 
BRANCH  60  62
ATOM     61  C   SER A   4      31.426  20.647  21.430  0.00  0.00    +0.243 C 
ATOM     62  N   GLY A   5      31.016  21.179  22.581  0.00  0.00    -0.295 N 
ATOM     63  H   GLY A   5      31.681  21.225  23.379  0.00  0.00    +0.150 HD
ATOM     64  O   SER A   4      30.831  20.802  20.345  0.00  0.00    -0.273 OA
BRANCH  61  65
ATOM     65  CA  SER A   4      32.725  19.860  21.507  0.00  0.00    +0.178 C 
BRANCH  65  67
ATOM     66  C   ALA A   3      35.051  20.641  21.400  0.00  0.00    +0.241 C 
ATOM     67  N   SER A   4      33.828  20.744  21.928  0.00  0.00    -0.295 N 
ATOM     68  H   SER A   4      33.649  21.466  22.655  0.00  0.00    +0.150 HD
ATOM     69  O   ALA A   3      35.348  19.803  20.525  0.00  0.00    -0.273 OA
BRANCH  66  70
ATOM     70  CA  ALA A   3      36.102  21.650  21.910  0.00  0.00    +0.149 C 
ATOM     71  CB  ALA A   3      36.655  21.218  23.265  0.00  0.00    +0.031 C 
BRANCH  70  73
ATOM     72  C   GLU A   2      35.028  23.599  20.886  0.00  0.00    +0.241 C 
ATOM     73  N   ALA A   3      35.597  23.036  21.959  0.00  0.00    -0.297 N 
ATOM     74  H   ALA A   3      35.684  23.583  22.839  0.00  0.00    +0.150 HD
ATOM     75  O   GLU A   2      34.779  22.972  19.868  0.00  0.00    -0.273 OA
BRANCH  72  76
ATOM     76  CA  GLU A   2      34.676  25.075  20.949  0.00  0.00    +0.149 C 
BRANCH  76  79
ATOM     77  C   THR A   1      36.759  26.269  20.480  0.00  0.00    +0.241 C 
ATOM     78  O   THR A   1      37.129  26.099  21.637  0.00  0.00    -0.274 OA
ATOM     79  N   GLU A   2      35.578  25.815  20.044  0.00  0.00    -0.297 N 
ATOM     80  H   GLU A   2      35.293  25.985  19.058  0.00  0.00    +0.150 HD
BRANCH  77  81
ATOM     81  CA  THR A   1      37.673  27.007  19.490  0.00  0.00    +0.172 C 
BRANCH  81  82
ATOM     82  N   THR A   1      37.689  26.468  18.123  0.00  0.00    -0.236 NA
ATOM     83  H   THR A   1      36.876  26.628  17.494  0.00  0.00    +0.142 HD
ENDBRANCH  81  82
BRANCH  81  84
ATOM     84  CB  THR A   1      37.357  28.514  19.500  0.00  0.00    +0.135 C 
ATOM     85  CG2 THR A   1      38.373  29.289  18.642  0.00  0.00    +0.034 C 
BRANCH  84  86
ATOM     86  OG1 THR A   1      36.043  28.739  18.982  0.00  0.00    -0.383 OA
ATOM     87  HG1 THR A   1      35.993  28.400  18.053  0.00  0.00    +0.210 HD
ENDBRANCH  84  86
ENDBRANCH  81  84
ENDBRANCH  77  81
ENDBRANCH  76  79
BRANCH  76  88
ATOM     88  CB  GLU A   2      33.206  25.281  20.549  0.00  0.00    +0.041 C 
BRANCH  88  89
ATOM     89  CG  GLU A   2      32.186  24.767  21.565  0.00  0.00    +0.116 C 
BRANCH  89  90
ATOM     90  CD  GLU A   2      31.966  25.736  22.706  0.00  0.00    +0.365 C 
ATOM     91  OE2 GLU A   2      32.621  25.573  23.747  0.00  0.00    -0.246 OA
ATOM     92  OE1 GLU A   2      31.171  26.691  22.552  0.00  0.00    -0.246 OA
ENDBRANCH  89  90
ENDBRANCH  88  89
ENDBRANCH  76  88
ENDBRANCH  72  76
ENDBRANCH  70  73
ENDBRANCH  66  70
ENDBRANCH  65  67
BRANCH  65  93
ATOM     93  CB  SER A   4      32.577  18.682  22.477  0.00  0.00    +0.166 C 
BRANCH  93  94
ATOM     94  OG  SER A   4      31.401  17.899  22.230  0.00  0.00    -0.380 OA
ATOM     95  H   SER A   4      30.599  18.471  22.326  0.00  0.00    +0.211 HD
ENDBRANCH  93  94
ENDBRANCH  65  93
ENDBRANCH  61  65
ENDBRANCH  60  62
ENDBRANCH  56  60
ENDBRANCH  55  57
BRANCH  55  96
ATOM     96  CB  THR A   6      26.911  19.228  25.742  0.00  0.00    +0.137 C 
ATOM     97  CG2 THR A   6      28.176  18.369  25.870  0.00  0.00    +0.034 C 
BRANCH  96  98
ATOM     98  OG1 THR A   6      26.960  20.310  26.677  0.00  0.00    -0.382 OA
ATOM     99  HG1 THR A   6      27.057  19.948  27.593  0.00  0.00    +0.210 HD
ENDBRANCH  96  98
ENDBRANCH  55  96
ENDBRANCH  51  55
ENDBRANCH   1  52
TORSDOF 44
REMARK  Name = ../refined-set-2016/3l7d/3l7d_pocket.pdb
REMARK  251 active torsions:
REMARK  status: ('A' for Active; 'I' for Inactive)
REMARK    1  A    between atoms: _1  and  _3
REMARK    2  A    between atoms: _3  and  _4
REMARK    3  A    between atoms: _3  and  _6
REMARK    4  A    between atoms: _6  and  _7
REMARK    5  A    between atoms: _12  and  _13
REMARK    6  A    between atoms: _15  and  _17
REMARK    7  A    between atoms: _17  and  _18
REMARK    8  A    between atoms: _17  and  _20
REMARK    9  A    between atoms: _20  and  _21
REMARK   10  A    between atoms: _24  and  _26
REMARK   11  A    between atoms: _26  and  _27
REMARK   12  A    between atoms: _26  and  _29
REMARK   13  A    between atoms: _29  and  _30
REMARK   14  A    between atoms: _30  and  _31
REMARK   15  A    between atoms: _34  and  _36
REMARK   16  A    between atoms: _36  and  _37
REMARK   17  A    between atoms: _36  and  _39
REMARK   18  A    between atoms: _39  and  _40
REMARK   19  A    between atoms: _45  and  _47
REMARK   20  A    between atoms: _47  and  _48
REMARK   21  A    between atoms: _50  and  _52
REMARK   22  A    between atoms: _52  and  _53
REMARK   23  A    between atoms: _55  and  _57
REMARK   24  A    between atoms: _57  and  _58
REMARK   25  A    between atoms: _57  and  _60
REMARK   26  A    between atoms: _60  and  _61
REMARK   27  A    between atoms: _64  and  _66
REMARK   28  A    between atoms: _66  and  _67
REMARK   29  A    between atoms: _69  and  _71
REMARK   30  A    between atoms: _71  and  _72
REMARK   31  A    between atoms: _71  and  _74
REMARK   32  A    between atoms: _74  and  _75
REMARK   33  A    between atoms: _75  and  _76
REMARK   34  A    between atoms: _76  and  _77
REMARK   35  A    between atoms: _86  and  _88
REMARK   36  A    between atoms: _88  and  _89
REMARK   37  A    between atoms: _88  and  _91
REMARK   38  A    between atoms: _91  and  _92
REMARK   39  A    between atoms: _95  and  _97
REMARK   40  A    between atoms: _97  and  _98
REMARK   41  A    between atoms: _101  and  _103
REMARK   42  A    between atoms: _103  and  _104
REMARK   43  A    between atoms: _103  and  _106
REMARK   44  A    between atoms: _106  and  _107
REMARK   45  A    between atoms: _113  and  _115
REMARK   46  A    between atoms: _115  and  _116
REMARK   47  A    between atoms: _115  and  _118
REMARK   48  A    between atoms: _118  and  _119
REMARK   49  A    between atoms: _124  and  _125
REMARK   50  A    between atoms: _128  and  _129
REMARK   51  A    between atoms: _134  and  _136
REMARK   52  A    between atoms: _136  and  _137
REMARK   53  A    between atoms: _136  and  _139
REMARK   54  A    between atoms: _139  and  _140
REMARK   55  A    between atoms: _145  and  _147
REMARK   56  A    between atoms: _147  and  _148
REMARK   57  A    between atoms: _147  and  _150
REMARK   58  A    between atoms: _150  and  _151
REMARK   59  A    between atoms: _154  and  _156
REMARK   60  A    between atoms: _156  and  _157
REMARK   61  A    between atoms: _156  and  _159
REMARK   62  A    between atoms: _159  and  _160
REMARK   63  A    between atoms: _165  and  _167
REMARK   64  A    between atoms: _167  and  _168
REMARK   65  A    between atoms: _167  and  _170
REMARK   66  A    between atoms: _170  and  _171
REMARK   67  A    between atoms: _177  and  _179
REMARK   68  A    between atoms: _179  and  _180
REMARK   69  A    between atoms: _179  and  _182
REMARK   70  A    between atoms: _182  and  _183
REMARK   71  A    between atoms: _189  and  _191
REMARK   72  A    between atoms: _191  and  _192
REMARK   73  A    between atoms: _191  and  _194
REMARK   74  A    between atoms: _194  and  _195
REMARK   75  A    between atoms: _195  and  _196
REMARK   76  A    between atoms: _199  and  _201
REMARK   77  A    between atoms: _201  and  _202
REMARK   78  A    between atoms: _201  and  _204
REMARK   79  A    between atoms: _204  and  _205
REMARK   80  A    between atoms: _205  and  _206
REMARK   81  A    between atoms: _206  and  _207
REMARK   82  A    between atoms: _216  and  _218
REMARK   83  A    between atoms: _218  and  _219
REMARK   84  A    between atoms: _218  and  _221
REMARK   85  A    between atoms: _221  and  _222
REMARK   86  A    between atoms: _222  and  _223
REMARK   87  A    between atoms: _226  and  _228
REMARK   88  A    between atoms: _228  and  _229
REMARK   89  A    between atoms: _228  and  _231
REMARK   90  A    between atoms: _231  and  _232
REMARK   91  A    between atoms: _237  and  _239
REMARK   92  A    between atoms: _239  and  _240
REMARK   93  A    between atoms: _239  and  _242
REMARK   94  A    between atoms: _242  and  _243
REMARK   95  A    between atoms: _246  and  _248
REMARK   96  A    between atoms: _248  and  _249
REMARK   97  A    between atoms: _248  and  _251
REMARK   98  A    between atoms: _251  and  _252
REMARK   99  A    between atoms: _255  and  _257
REMARK  100  A    between atoms: _257  and  _258
REMARK  101  A    between atoms: _257  and  _260
REMARK  102  A    between atoms: _260  and  _261
REMARK  103  A    between atoms: _266  and  _268
REMARK  104  A    between atoms: _268  and  _269
REMARK  105  A    between atoms: _268  and  _271
REMARK  106  A    between atoms: _271  and  _272
REMARK  107  A    between atoms: _275  and  _277
REMARK  108  A    between atoms: _277  and  _278
REMARK  109  A    between atoms: _277  and  _280
REMARK  110  A    between atoms: _280  and  _281
REMARK  111  A    between atoms: _286  and  _288
REMARK  112  A    between atoms: _288  and  _289
REMARK  113  A    between atoms: _288  and  _291
REMARK  114  A    between atoms: _291  and  _292
REMARK  115  A    between atoms: _297  and  _299
REMARK  116  A    between atoms: _299  and  _300
REMARK  117  A    between atoms: _299  and  _302
REMARK  118  A    between atoms: _302  and  _303
REMARK  119  A    between atoms: _306  and  _308
REMARK  120  A    between atoms: _308  and  _309
REMARK  121  A    between atoms: _308  and  _311
REMARK  122  A    between atoms: _314  and  _316
REMARK  123  A    between atoms: _316  and  _317
REMARK  124  A    between atoms: _316  and  _319
REMARK  125  A    between atoms: _319  and  _320
REMARK  126  A    between atoms: _323  and  _325
REMARK  127  A    between atoms: _325  and  _326
REMARK  128  A    between atoms: _325  and  _328
REMARK  129  A    between atoms: _328  and  _329
REMARK  130  A    between atoms: _329  and  _330
REMARK  131  A    between atoms: _333  and  _335
REMARK  132  A    between atoms: _335  and  _336
REMARK  133  A    between atoms: _339  and  _341
REMARK  134  A    between atoms: _341  and  _342
REMARK  135  A    between atoms: _341  and  _344
REMARK  136  A    between atoms: _344  and  _345
REMARK  137  A    between atoms: _348  and  _350
REMARK  138  A    between atoms: _350  and  _351
REMARK  139  A    between atoms: _350  and  _353
REMARK  140  A    between atoms: _353  and  _354
REMARK  141  A    between atoms: _354  and  _355
REMARK  142  A    between atoms: _358  and  _360
REMARK  143  A    between atoms: _360  and  _361
REMARK  144  A    between atoms: _360  and  _363
REMARK  145  A    between atoms: _363  and  _364
REMARK  146  A    between atoms: _369  and  _371
REMARK  147  A    between atoms: _371  and  _372
REMARK  148  A    between atoms: _374  and  _376
REMARK  149  A    between atoms: _376  and  _377
REMARK  150  A    between atoms: _376  and  _379
REMARK  151  A    between atoms: _382  and  _384
REMARK  152  A    between atoms: _384  and  _385
REMARK  153  A    between atoms: _388  and  _390
REMARK  154  A    between atoms: _390  and  _391
REMARK  155  A    between atoms: _390  and  _393
REMARK  156  A    between atoms: _393  and  _394
REMARK  157  A    between atoms: _399  and  _401
REMARK  158  A    between atoms: _401  and  _402
REMARK  159  A    between atoms: _401  and  _404
REMARK  160  A    between atoms: _404  and  _405
REMARK  161  A    between atoms: _405  and  _406
REMARK  162  A    between atoms: _406  and  _407
REMARK  163  A    between atoms: _407  and  _408
REMARK  164  A    between atoms: _412  and  _414
REMARK  165  A    between atoms: _414  and  _415
REMARK  166  A    between atoms: _414  and  _417
REMARK  167  A    between atoms: _417  and  _418
REMARK  168  A    between atoms: _423  and  _425
REMARK  169  A    between atoms: _425  and  _426
REMARK  170  A    between atoms: _428  and  _430
REMARK  171  A    between atoms: _430  and  _431
REMARK  172  A    between atoms: _430  and  _433
REMARK  173  A    between atoms: _433  and  _434
REMARK  174  A    between atoms: _434  and  _435
REMARK  175  A    between atoms: _435  and  _436
REMARK  176  A    between atoms: _436  and  _437
REMARK  177  A    between atoms: _441  and  _443
REMARK  178  A    between atoms: _443  and  _444
REMARK  179  A    between atoms: _443  and  _446
REMARK  180  A    between atoms: _446  and  _447
REMARK  181  A    between atoms: _447  and  _448
REMARK  182  A    between atoms: _448  and  _449
REMARK  183  A    between atoms: _458  and  _460
REMARK  184  A    between atoms: _460  and  _461
REMARK  185  A    between atoms: _460  and  _463
REMARK  186  A    between atoms: _463  and  _464
REMARK  187  A    between atoms: _469  and  _470
REMARK  188  A    between atoms: _472  and  _474
REMARK  189  A    between atoms: _474  and  _475
REMARK  190  A    between atoms: _474  and  _477
REMARK  191  A    between atoms: _477  and  _478
REMARK  192  A    between atoms: _478  and  _479
REMARK  193  A    between atoms: _479  and  _480
REMARK  194  A    between atoms: _480  and  _481
REMARK  195  A    between atoms: _485  and  _487
REMARK  196  A    between atoms: _487  and  _488
REMARK  197  A    between atoms: _487  and  _490
REMARK  198  A    between atoms: _490  and  _491
REMARK  199  A    between atoms: _494  and  _496
REMARK  200  A    between atoms: _496  and  _497
REMARK  201  A    between atoms: _496  and  _499
REMARK  202  A    between atoms: _499  and  _500
REMARK  203  A    between atoms: _500  and  _501
REMARK  204  A    between atoms: _504  and  _506
REMARK  205  A    between atoms: _506  and  _507
REMARK  206  A    between atoms: _510  and  _512
REMARK  207  A    between atoms: _512  and  _513
REMARK  208  A    between atoms: _512  and  _515
REMARK  209  A    between atoms: _515  and  _516
REMARK  210  A    between atoms: _518  and  _520
REMARK  211  A    between atoms: _520  and  _521
REMARK  212  A    between atoms: _523  and  _525
REMARK  213  A    between atoms: _525  and  _526
REMARK  214  A    between atoms: _525  and  _528
REMARK  215  A    between atoms: _528  and  _529
REMARK  216  A    between atoms: _532  and  _534
REMARK  217  A    between atoms: _534  and  _535
REMARK  218  A    between atoms: _537  and  _539
REMARK  219  A    between atoms: _539  and  _540
REMARK  220  A    between atoms: _539  and  _542
REMARK  221  A    between atoms: _542  and  _543
REMARK  222  A    between atoms: _548  and  _550
REMARK  223  A    between atoms: _550  and  _551
REMARK  224  A    between atoms: _550  and  _553
REMARK  225  A    between atoms: _553  and  _554
REMARK  226  A    between atoms: _554  and  _555
REMARK  227  A    between atoms: _562  and  _563
REMARK  228  A    between atoms: _563  and  _579
REMARK  229  A    between atoms: _564  and  _566
REMARK  230  A    between atoms: _566  and  _567
REMARK  231  A    between atoms: _567  and  _568
REMARK  232  A    between atoms: _572  and  _574
REMARK  233  A    between atoms: _574  and  _575
REMARK  234  A    between atoms: _574  and  _582
REMARK  235  A    between atoms: _575  and  _576
REMARK  236  A    between atoms: _576  and  _577
REMARK  237  A    between atoms: _577  and  _578
REMARK  238  A    between atoms: _578  and  _579
REMARK  239  A    between atoms: _584  and  _586
REMARK  240  A    between atoms: _586  and  _587
REMARK  241  A    between atoms: _586  and  _589
REMARK  242  A    between atoms: _589  and  _590
REMARK  243  A    between atoms: _593  and  _595
REMARK  244  A    between atoms: _595  and  _596
REMARK  245  A    between atoms: _598  and  _600
REMARK  246  A    between atoms: _600  and  _601
REMARK  247  A    between atoms: _604  and  _606
REMARK  248  A    between atoms: _606  and  _607
REMARK  249  A    between atoms: _606  and  _609
REMARK  250  A    between atoms: _609  and  _610
REMARK  251  A    between atoms: _615  and  _616
REMARK                            x       y       z     vdW  Elec       q    Type
REMARK                         _______ _______ _______ _____ _____    ______ ____
ROOT
ATOM      1  C   ASP A   1      33.010  22.260  15.950  0.00  0.00    +0.239 C 
ATOM      2  N   GLY A   2      33.910  21.752  16.787  0.00  0.00    -0.296 N 
ATOM      3  H   GLY A   2      34.908  22.035  16.705  0.00  0.00    +0.150 HD
ATOM      4  O   ASP A   1      31.825  21.905  15.943  0.00  0.00    -0.274 OA
ENDROOT
BRANCH   1   5
ATOM      5  CA  ASP A   1      33.509  23.297  14.959  0.00  0.00    +0.156 C 
BRANCH   5   6
ATOM      6  N   ASP A   1      32.733  23.232  13.716  0.00  0.00    -0.238 NA
ATOM      7  H   ASP A   1      31.696  23.185  13.778  0.00  0.00    +0.142 HD
ENDBRANCH   5   6
BRANCH   5   8
ATOM      8  CB  ASP A   1      33.406  24.686  15.586  0.00  0.00    +0.140 C 
BRANCH   8   9
ATOM      9  CG  ASP A   1      34.526  24.958  16.596  0.00  0.00    +0.367 C 
ATOM     10  OD2 ASP A   1      34.369  25.872  17.420  0.00  0.00    -0.246 OA
ATOM     11  OD1 ASP A   1      35.546  24.224  16.580  0.00  0.00    -0.246 OA
ENDBRANCH   8   9
ENDBRANCH   5   8
ENDBRANCH   1   5
BRANCH   2  12
ATOM     12  CA  GLY A   2      33.508  20.797  17.824  0.00  0.00    +0.176 C 
BRANCH  12  13
ATOM     13  C   GLY A   2      32.643  19.677  17.283  0.00  0.00    +0.243 C 
ATOM     14  N   ALA A   3      31.590  19.338  18.023  0.00  0.00    -0.298 N 
ATOM     15  H   ALA A   3      31.381  19.879  18.886  0.00  0.00    +0.150 HD
ATOM     16  O   GLY A   2      32.923  19.128  16.208  0.00  0.00    -0.273 OA
BRANCH  14  17
ATOM     17  CA  ALA A   3      30.721  18.223  17.651  0.00  0.00    +0.137 C 
ATOM     18  CB  ALA A   3      29.953  17.685  18.862  0.00  0.00    +0.030 C 
BRANCH  17  19
ATOM     19  C   ALA A   3      29.759  18.538  16.506  0.00  0.00    +0.227 C 
ATOM     20  O   ALA A   3      29.152  17.604  15.974  0.00  0.00    -0.286 OA
ENDBRANCH  17  19
ENDBRANCH  14  17
ENDBRANCH  12  13
ENDBRANCH   2  12
TORSDOF 8
REMARK  Name = ../refined-set-2016/3l7d/3l7d_pocket.pdb
REMARK  251 active torsions:
REMARK  status: ('A' for Active; 'I' for Inactive)
REMARK    1  A    between atoms: _1  and  _3
REMARK    2  A    between atoms: _3  and  _4
REMARK    3  A    between atoms: _3  and  _6
REMARK    4  A    between atoms: _6  and  _7
REMARK    5  A    between atoms: _12  and  _13
REMARK    6  A    between atoms: _15  and  _17
REMARK    7  A    between atoms: _17  and  _18
REMARK    8  A    between atoms: _17  and  _20
REMARK    9  A    between atoms: _20  and  _21
REMARK   10  A    between atoms: _24  and  _26
REMARK   11  A    between atoms: _26  and  _27
REMARK   12  A    between atoms: _26  and  _29
REMARK   13  A    between atoms: _29  and  _30
REMARK   14  A    between atoms: _30  and  _31
REMARK   15  A    between atoms: _34  and  _36
REMARK   16  A    between atoms: _36  and  _37
REMARK   17  A    between atoms: _36  and  _39
REMARK   18  A    between atoms: _39  and  _40
REMARK   19  A    between atoms: _45  and  _47
REMARK   20  A    between atoms: _47  and  _48
REMARK   21  A    between atoms: _50  and  _52
REMARK   22  A    between atoms: _52  and  _53
REMARK   23  A    between atoms: _55  and  _57
REMARK   24  A    between atoms: _57  and  _58
REMARK   25  A    between atoms: _57  and  _60
REMARK   26  A    between atoms: _60  and  _61
REMARK   27  A    between atoms: _64  and  _66
REMARK   28  A    between atoms: _66  and  _67
REMARK   29  A    between atoms: _69  and  _71
REMARK   30  A    between atoms: _71  and  _72
REMARK   31  A    between atoms: _71  and  _74
REMARK   32  A    between atoms: _74  and  _75
REMARK   33  A    between atoms: _75  and  _76
REMARK   34  A    between atoms: _76  and  _77
REMARK   35  A    between atoms: _86  and  _88
REMARK   36  A    between atoms: _88  and  _89
REMARK   37  A    between atoms: _88  and  _91
REMARK   38  A    between atoms: _91  and  _92
REMARK   39  A    between atoms: _95  and  _97
REMARK   40  A    between atoms: _97  and  _98
REMARK   41  A    between atoms: _101  and  _103
REMARK   42  A    between atoms: _103  and  _104
REMARK   43  A    between atoms: _103  and  _106
REMARK   44  A    between atoms: _106  and  _107
REMARK   45  A    between atoms: _113  and  _115
REMARK   46  A    between atoms: _115  and  _116
REMARK   47  A    between atoms: _115  and  _118
REMARK   48  A    between atoms: _118  and  _119
REMARK   49  A    between atoms: _124  and  _125
REMARK   50  A    between atoms: _128  and  _129
REMARK   51  A    between atoms: _134  and  _136
REMARK   52  A    between atoms: _136  and  _137
REMARK   53  A    between atoms: _136  and  _139
REMARK   54  A    between atoms: _139  and  _140
REMARK   55  A    between atoms: _145  and  _147
REMARK   56  A    between atoms: _147  and  _148
REMARK   57  A    between atoms: _147  and  _150
REMARK   58  A    between atoms: _150  and  _151
REMARK   59  A    between atoms: _154  and  _156
REMARK   60  A    between atoms: _156  and  _157
REMARK   61  A    between atoms: _156  and  _159
REMARK   62  A    between atoms: _159  and  _160
REMARK   63  A    between atoms: _165  and  _167
REMARK   64  A    between atoms: _167  and  _168
REMARK   65  A    between atoms: _167  and  _170
REMARK   66  A    between atoms: _170  and  _171
REMARK   67  A    between atoms: _177  and  _179
REMARK   68  A    between atoms: _179  and  _180
REMARK   69  A    between atoms: _179  and  _182
REMARK   70  A    between atoms: _182  and  _183
REMARK   71  A    between atoms: _189  and  _191
REMARK   72  A    between atoms: _191  and  _192
REMARK   73  A    between atoms: _191  and  _194
REMARK   74  A    between atoms: _194  and  _195
REMARK   75  A    between atoms: _195  and  _196
REMARK   76  A    between atoms: _199  and  _201
REMARK   77  A    between atoms: _201  and  _202
REMARK   78  A    between atoms: _201  and  _204
REMARK   79  A    between atoms: _204  and  _205
REMARK   80  A    between atoms: _205  and  _206
REMARK   81  A    between atoms: _206  and  _207
REMARK   82  A    between atoms: _216  and  _218
REMARK   83  A    between atoms: _218  and  _219
REMARK   84  A    between atoms: _218  and  _221
REMARK   85  A    between atoms: _221  and  _222
REMARK   86  A    between atoms: _222  and  _223
REMARK   87  A    between atoms: _226  and  _228
REMARK   88  A    between atoms: _228  and  _229
REMARK   89  A    between atoms: _228  and  _231
REMARK   90  A    between atoms: _231  and  _232
REMARK   91  A    between atoms: _237  and  _239
REMARK   92  A    between atoms: _239  and  _240
REMARK   93  A    between atoms: _239  and  _242
REMARK   94  A    between atoms: _242  and  _243
REMARK   95  A    between atoms: _246  and  _248
REMARK   96  A    between atoms: _248  and  _249
REMARK   97  A    between atoms: _248  and  _251
REMARK   98  A    between atoms: _251  and  _252
REMARK   99  A    between atoms: _255  and  _257
REMARK  100  A    between atoms: _257  and  _258
REMARK  101  A    between atoms: _257  and  _260
REMARK  102  A    between atoms: _260  and  _261
REMARK  103  A    between atoms: _266  and  _268
REMARK  104  A    between atoms: _268  and  _269
REMARK  105  A    between atoms: _268  and  _271
REMARK  106  A    between atoms: _271  and  _272
REMARK  107  A    between atoms: _275  and  _277
REMARK  108  A    between atoms: _277  and  _278
REMARK  109  A    between atoms: _277  and  _280
REMARK  110  A    between atoms: _280  and  _281
REMARK  111  A    between atoms: _286  and  _288
REMARK  112  A    between atoms: _288  and  _289
REMARK  113  A    between atoms: _288  and  _291
REMARK  114  A    between atoms: _291  and  _292
REMARK  115  A    between atoms: _297  and  _299
REMARK  116  A    between atoms: _299  and  _300
REMARK  117  A    between atoms: _299  and  _302
REMARK  118  A    between atoms: _302  and  _303
REMARK  119  A    between atoms: _306  and  _308
REMARK  120  A    between atoms: _308  and  _309
REMARK  121  A    between atoms: _308  and  _311
REMARK  122  A    between atoms: _314  and  _316
REMARK  123  A    between atoms: _316  and  _317
REMARK  124  A    between atoms: _316  and  _319
REMARK  125  A    between atoms: _319  and  _320
REMARK  126  A    between atoms: _323  and  _325
REMARK  127  A    between atoms: _325  and  _326
REMARK  128  A    between atoms: _325  and  _328
REMARK  129  A    between atoms: _328  and  _329
REMARK  130  A    between atoms: _329  and  _330
REMARK  131  A    between atoms: _333  and  _335
REMARK  132  A    between atoms: _335  and  _336
REMARK  133  A    between atoms: _339  and  _341
REMARK  134  A    between atoms: _341  and  _342
REMARK  135  A    between atoms: _341  and  _344
REMARK  136  A    between atoms: _344  and  _345
REMARK  137  A    between atoms: _348  and  _350
REMARK  138  A    between atoms: _350  and  _351
REMARK  139  A    between atoms: _350  and  _353
REMARK  140  A    between atoms: _353  and  _354
REMARK  141  A    between atoms: _354  and  _355
REMARK  142  A    between atoms: _358  and  _360
REMARK  143  A    between atoms: _360  and  _361
REMARK  144  A    between atoms: _360  and  _363
REMARK  145  A    between atoms: _363  and  _364
REMARK  146  A    between atoms: _369  and  _371
REMARK  147  A    between atoms: _371  and  _372
REMARK  148  A    between atoms: _374  and  _376
REMARK  149  A    between atoms: _376  and  _377
REMARK  150  A    between atoms: _376  and  _379
REMARK  151  A    between atoms: _382  and  _384
REMARK  152  A    between atoms: _384  and  _385
REMARK  153  A    between atoms: _388  and  _390
REMARK  154  A    between atoms: _390  and  _391
REMARK  155  A    between atoms: _390  and  _393
REMARK  156  A    between atoms: _393  and  _394
REMARK  157  A    between atoms: _399  and  _401
REMARK  158  A    between atoms: _401  and  _402
REMARK  159  A    between atoms: _401  and  _404
REMARK  160  A    between atoms: _404  and  _405
REMARK  161  A    between atoms: _405  and  _406
REMARK  162  A    between atoms: _406  and  _407
REMARK  163  A    between atoms: _407  and  _408
REMARK  164  A    between atoms: _412  and  _414
REMARK  165  A    between atoms: _414  and  _415
REMARK  166  A    between atoms: _414  and  _417
REMARK  167  A    between atoms: _417  and  _418
REMARK  168  A    between atoms: _423  and  _425
REMARK  169  A    between atoms: _425  and  _426
REMARK  170  A    between atoms: _428  and  _430
REMARK  171  A    between atoms: _430  and  _431
REMARK  172  A    between atoms: _430  and  _433
REMARK  173  A    between atoms: _433  and  _434
REMARK  174  A    between atoms: _434  and  _435
REMARK  175  A    between atoms: _435  and  _436
REMARK  176  A    between atoms: _436  and  _437
REMARK  177  A    between atoms: _441  and  _443
REMARK  178  A    between atoms: _443  and  _444
REMARK  179  A    between atoms: _443  and  _446
REMARK  180  A    between atoms: _446  and  _447
REMARK  181  A    between atoms: _447  and  _448
REMARK  182  A    between atoms: _448  and  _449
REMARK  183  A    between atoms: _458  and  _460
REMARK  184  A    between atoms: _460  and  _461
REMARK  185  A    between atoms: _460  and  _463
REMARK  186  A    between atoms: _463  and  _464
REMARK  187  A    between atoms: _469  and  _470
REMARK  188  A    between atoms: _472  and  _474
REMARK  189  A    between atoms: _474  and  _475
REMARK  190  A    between atoms: _474  and  _477
REMARK  191  A    between atoms: _477  and  _478
REMARK  192  A    between atoms: _478  and  _479
REMARK  193  A    between atoms: _479  and  _480
REMARK  194  A    between atoms: _480  and  _481
REMARK  195  A    between atoms: _485  and  _487
REMARK  196  A    between atoms: _487  and  _488
REMARK  197  A    between atoms: _487  and  _490
REMARK  198  A    between atoms: _490  and  _491
REMARK  199  A    between atoms: _494  and  _496
REMARK  200  A    between atoms: _496  and  _497
REMARK  201  A    between atoms: _496  and  _499
REMARK  202  A    between atoms: _499  and  _500
REMARK  203  A    between atoms: _500  and  _501
REMARK  204  A    between atoms: _504  and  _506
REMARK  205  A    between atoms: _506  and  _507
REMARK  206  A    between atoms: _510  and  _512
REMARK  207  A    between atoms: _512  and  _513
REMARK  208  A    between atoms: _512  and  _515
REMARK  209  A    between atoms: _515  and  _516
REMARK  210  A    between atoms: _518  and  _520
REMARK  211  A    between atoms: _520  and  _521
REMARK  212  A    between atoms: _523  and  _525
REMARK  213  A    between atoms: _525  and  _526
REMARK  214  A    between atoms: _525  and  _528
REMARK  215  A    between atoms: _528  and  _529
REMARK  216  A    between atoms: _532  and  _534
REMARK  217  A    between atoms: _534  and  _535
REMARK  218  A    between atoms: _537  and  _539
REMARK  219  A    between atoms: _539  and  _540
REMARK  220  A    between atoms: _539  and  _542
REMARK  221  A    between atoms: _542  and  _543
REMARK  222  A    between atoms: _548  and  _550
REMARK  223  A    between atoms: _550  and  _551
REMARK  224  A    between atoms: _550  and  _553
REMARK  225  A    between atoms: _553  and  _554
REMARK  226  A    between atoms: _554  and  _555
REMARK  227  A    between atoms: _562  and  _563
REMARK  228  A    between atoms: _563  and  _579
REMARK  229  A    between atoms: _564  and  _566
REMARK  230  A    between atoms: _566  and  _567
REMARK  231  A    between atoms: _567  and  _568
REMARK  232  A    between atoms: _572  and  _574
REMARK  233  A    between atoms: _574  and  _575
REMARK  234  A    between atoms: _574  and  _582
REMARK  235  A    between atoms: _575  and  _576
REMARK  236  A    between atoms: _576  and  _577
REMARK  237  A    between atoms: _577  and  _578
REMARK  238  A    between atoms: _578  and  _579
REMARK  239  A    between atoms: _584  and  _586
REMARK  240  A    between atoms: _586  and  _587
REMARK  241  A    between atoms: _586  and  _589
REMARK  242  A    between atoms: _589  and  _590
REMARK  243  A    between atoms: _593  and  _595
REMARK  244  A    between atoms: _595  and  _596
REMARK  245  A    between atoms: _598  and  _600
REMARK  246  A    between atoms: _600  and  _601
REMARK  247  A    between atoms: _604  and  _606
REMARK  248  A    between atoms: _606  and  _607
REMARK  249  A    between atoms: _606  and  _609
REMARK  250  A    between atoms: _609  and  _610
REMARK  251  A    between atoms: _615  and  _616
REMARK                            x       y       z     vdW  Elec       q    Type
REMARK                         _______ _______ _______ _____ _____    ______ ____
ROOT
ATOM      1  CG  TYR A   1      34.670   7.551  29.053  0.00  0.00    -0.020 A 
ATOM      2  CD2 TYR A   1      35.813   8.171  29.573  0.00  0.00    -0.001 A 
ATOM      3  CE2 TYR A   1      36.060   9.529  29.352  0.00  0.00    +0.036 A 
ATOM      4  CZ  TYR A   1      35.155  10.272  28.625  0.00  0.00    +0.134 A 
ATOM      5  CE1 TYR A   1      34.007   9.687  28.110  0.00  0.00    +0.036 A 
ATOM      6  CD1 TYR A   1      33.768   8.329  28.333  0.00  0.00    -0.001 A 
ENDROOT
BRANCH   4   7
ATOM      7  OH  TYR A   1      35.389  11.610  28.403  0.00  0.00    -0.506 OA
ATOM      8  HH  TYR A   1      35.444  11.777  27.429  0.00  0.00    +0.292 HD
ENDBRANCH   4   7
BRANCH   1   9
ATOM      9  CB  TYR A   1      34.391   6.092  29.325  0.00  0.00    +0.051 C 
BRANCH   9  10
ATOM     10  CA  TYR A   1      34.967   5.093  28.318  0.00  0.00    +0.137 C 
BRANCH  10  11
ATOM     11  N   TYR A   1      34.087   4.957  27.155  0.00  0.00    -0.239 NA
ATOM     12  H   TYR A   1      33.266   5.588  27.061  0.00  0.00    +0.142 HD
ENDBRANCH  10  11
BRANCH  10  13
ATOM     13  C   TYR A   1      35.140   3.758  29.038  0.00  0.00    +0.224 C 
ATOM     14  O   TYR A   1      36.257   3.360  29.367  0.00  0.00    -0.287 OA
ENDBRANCH  10  13
ENDBRANCH   9  10
ENDBRANCH   1   9
TORSDOF 5
REMARK  Name = ../refined-set-2016/3l7d/3l7d_pocket.pdb
REMARK  251 active torsions:
REMARK  status: ('A' for Active; 'I' for Inactive)
REMARK    1  A    between atoms: _1  and  _3
REMARK    2  A    between atoms: _3  and  _4
REMARK    3  A    between atoms: _3  and  _6
REMARK    4  A    between atoms: _6  and  _7
REMARK    5  A    between atoms: _12  and  _13
REMARK    6  A    between atoms: _15  and  _17
REMARK    7  A    between atoms: _17  and  _18
REMARK    8  A    between atoms: _17  and  _20
REMARK    9  A    between atoms: _20  and  _21
REMARK   10  A    between atoms: _24  and  _26
REMARK   11  A    between atoms: _26  and  _27
REMARK   12  A    between atoms: _26  and  _29
REMARK   13  A    between atoms: _29  and  _30
REMARK   14  A    between atoms: _30  and  _31
REMARK   15  A    between atoms: _34  and  _36
REMARK   16  A    between atoms: _36  and  _37
REMARK   17  A    between atoms: _36  and  _39
REMARK   18  A    between atoms: _39  and  _40
REMARK   19  A    between atoms: _45  and  _47
REMARK   20  A    between atoms: _47  and  _48
REMARK   21  A    between atoms: _50  and  _52
REMARK   22  A    between atoms: _52  and  _53
REMARK   23  A    between atoms: _55  and  _57
REMARK   24  A    between atoms: _57  and  _58
REMARK   25  A    between atoms: _57  and  _60
REMARK   26  A    between atoms: _60  and  _61
REMARK   27  A    between atoms: _64  and  _66
REMARK   28  A    between atoms: _66  and  _67
REMARK   29  A    between atoms: _69  and  _71
REMARK   30  A    between atoms: _71  and  _72
REMARK   31  A    between atoms: _71  and  _74
REMARK   32  A    between atoms: _74  and  _75
REMARK   33  A    between atoms: _75  and  _76
REMARK   34  A    between atoms: _76  and  _77
REMARK   35  A    between atoms: _86  and  _88
REMARK   36  A    between atoms: _88  and  _89
REMARK   37  A    between atoms: _88  and  _91
REMARK   38  A    between atoms: _91  and  _92
REMARK   39  A    between atoms: _95  and  _97
REMARK   40  A    between atoms: _97  and  _98
REMARK   41  A    between atoms: _101  and  _103
REMARK   42  A    between atoms: _103  and  _104
REMARK   43  A    between atoms: _103  and  _106
REMARK   44  A    between atoms: _106  and  _107
REMARK   45  A    between atoms: _113  and  _115
REMARK   46  A    between atoms: _115  and  _116
REMARK   47  A    between atoms: _115  and  _118
REMARK   48  A    between atoms: _118  and  _119
REMARK   49  A    between atoms: _124  and  _125
REMARK   50  A    between atoms: _128  and  _129
REMARK   51  A    between atoms: _134  and  _136
REMARK   52  A    between atoms: _136  and  _137
REMARK   53  A    between atoms: _136  and  _139
REMARK   54  A    between atoms: _139  and  _140
REMARK   55  A    between atoms: _145  and  _147
REMARK   56  A    between atoms: _147  and  _148
REMARK   57  A    between atoms: _147  and  _150
REMARK   58  A    between atoms: _150  and  _151
REMARK   59  A    between atoms: _154  and  _156
REMARK   60  A    between atoms: _156  and  _157
REMARK   61  A    between atoms: _156  and  _159
REMARK   62  A    between atoms: _159  and  _160
REMARK   63  A    between atoms: _165  and  _167
REMARK   64  A    between atoms: _167  and  _168
REMARK   65  A    between atoms: _167  and  _170
REMARK   66  A    between atoms: _170  and  _171
REMARK   67  A    between atoms: _177  and  _179
REMARK   68  A    between atoms: _179  and  _180
REMARK   69  A    between atoms: _179  and  _182
REMARK   70  A    between atoms: _182  and  _183
REMARK   71  A    between atoms: _189  and  _191
REMARK   72  A    between atoms: _191  and  _192
REMARK   73  A    between atoms: _191  and  _194
REMARK   74  A    between atoms: _194  and  _195
REMARK   75  A    between atoms: _195  and  _196
REMARK   76  A    between atoms: _199  and  _201
REMARK   77  A    between atoms: _201  and  _202
REMARK   78  A    between atoms: _201  and  _204
REMARK   79  A    between atoms: _204  and  _205
REMARK   80  A    between atoms: _205  and  _206
REMARK   81  A    between atoms: _206  and  _207
REMARK   82  A    between atoms: _216  and  _218
REMARK   83  A    between atoms: _218  and  _219
REMARK   84  A    between atoms: _218  and  _221
REMARK   85  A    between atoms: _221  and  _222
REMARK   86  A    between atoms: _222  and  _223
REMARK   87  A    between atoms: _226  and  _228
REMARK   88  A    between atoms: _228  and  _229
REMARK   89  A    between atoms: _228  and  _231
REMARK   90  A    between atoms: _231  and  _232
REMARK   91  A    between atoms: _237  and  _239
REMARK   92  A    between atoms: _239  and  _240
REMARK   93  A    between atoms: _239  and  _242
REMARK   94  A    between atoms: _242  and  _243
REMARK   95  A    between atoms: _246  and  _248
REMARK   96  A    between atoms: _248  and  _249
REMARK   97  A    between atoms: _248  and  _251
REMARK   98  A    between atoms: _251  and  _252
REMARK   99  A    between atoms: _255  and  _257
REMARK  100  A    between atoms: _257  and  _258
REMARK  101  A    between atoms: _257  and  _260
REMARK  102  A    between atoms: _260  and  _261
REMARK  103  A    between atoms: _266  and  _268
REMARK  104  A    between atoms: _268  and  _269
REMARK  105  A    between atoms: _268  and  _271
REMARK  106  A    between atoms: _271  and  _272
REMARK  107  A    between atoms: _275  and  _277
REMARK  108  A    between atoms: _277  and  _278
REMARK  109  A    between atoms: _277  and  _280
REMARK  110  A    between atoms: _280  and  _281
REMARK  111  A    between atoms: _286  and  _288
REMARK  112  A    between atoms: _288  and  _289
REMARK  113  A    between atoms: _288  and  _291
REMARK  114  A    between atoms: _291  and  _292
REMARK  115  A    between atoms: _297  and  _299
REMARK  116  A    between atoms: _299  and  _300
REMARK  117  A    between atoms: _299  and  _302
REMARK  118  A    between atoms: _302  and  _303
REMARK  119  A    between atoms: _306  and  _308
REMARK  120  A    between atoms: _308  and  _309
REMARK  121  A    between atoms: _308  and  _311
REMARK  122  A    between atoms: _314  and  _316
REMARK  123  A    between atoms: _316  and  _317
REMARK  124  A    between atoms: _316  and  _319
REMARK  125  A    between atoms: _319  and  _320
REMARK  126  A    between atoms: _323  and  _325
REMARK  127  A    between atoms: _325  and  _326
REMARK  128  A    between atoms: _325  and  _328
REMARK  129  A    between atoms: _328  and  _329
REMARK  130  A    between atoms: _329  and  _330
REMARK  131  A    between atoms: _333  and  _335
REMARK  132  A    between atoms: _335  and  _336
REMARK  133  A    between atoms: _339  and  _341
REMARK  134  A    between atoms: _341  and  _342
REMARK  135  A    between atoms: _341  and  _344
REMARK  136  A    between atoms: _344  and  _345
REMARK  137  A    between atoms: _348  and  _350
REMARK  138  A    between atoms: _350  and  _351
REMARK  139  A    between atoms: _350  and  _353
REMARK  140  A    between atoms: _353  and  _354
REMARK  141  A    between atoms: _354  and  _355
REMARK  142  A    between atoms: _358  and  _360
REMARK  143  A    between atoms: _360  and  _361
REMARK  144  A    between atoms: _360  and  _363
REMARK  145  A    between atoms: _363  and  _364
REMARK  146  A    between atoms: _369  and  _371
REMARK  147  A    between atoms: _371  and  _372
REMARK  148  A    between atoms: _374  and  _376
REMARK  149  A    between atoms: _376  and  _377
REMARK  150  A    between atoms: _376  and  _379
REMARK  151  A    between atoms: _382  and  _384
REMARK  152  A    between atoms: _384  and  _385
REMARK  153  A    between atoms: _388  and  _390
REMARK  154  A    between atoms: _390  and  _391
REMARK  155  A    between atoms: _390  and  _393
REMARK  156  A    between atoms: _393  and  _394
REMARK  157  A    between atoms: _399  and  _401
REMARK  158  A    between atoms: _401  and  _402
REMARK  159  A    between atoms: _401  and  _404
REMARK  160  A    between atoms: _404  and  _405
REMARK  161  A    between atoms: _405  and  _406
REMARK  162  A    between atoms: _406  and  _407
REMARK  163  A    between atoms: _407  and  _408
REMARK  164  A    between atoms: _412  and  _414
REMARK  165  A    between atoms: _414  and  _415
REMARK  166  A    between atoms: _414  and  _417
REMARK  167  A    between atoms: _417  and  _418
REMARK  168  A    between atoms: _423  and  _425
REMARK  169  A    between atoms: _425  and  _426
REMARK  170  A    between atoms: _428  and  _430
REMARK  171  A    between atoms: _430  and  _431
REMARK  172  A    between atoms: _430  and  _433
REMARK  173  A    between atoms: _433  and  _434
REMARK  174  A    between atoms: _434  and  _435
REMARK  175  A    between atoms: _435  and  _436
REMARK  176  A    between atoms: _436  and  _437
REMARK  177  A    between atoms: _441  and  _443
REMARK  178  A    between atoms: _443  and  _444
REMARK  179  A    between atoms: _443  and  _446
REMARK  180  A    between atoms: _446  and  _447
REMARK  181  A    between atoms: _447  and  _448
REMARK  182  A    between atoms: _448  and  _449
REMARK  183  A    between atoms: _458  and  _460
REMARK  184  A    between atoms: _460  and  _461
REMARK  185  A    between atoms: _460  and  _463
REMARK  186  A    between atoms: _463  and  _464
REMARK  187  A    between atoms: _469  and  _470
REMARK  188  A    between atoms: _472  and  _474
REMARK  189  A    between atoms: _474  and  _475
REMARK  190  A    between atoms: _474  and  _477
REMARK  191  A    between atoms: _477  and  _478
REMARK  192  A    between atoms: _478  and  _479
REMARK  193  A    between atoms: _479  and  _480
REMARK  194  A    between atoms: _480  and  _481
REMARK  195  A    between atoms: _485  and  _487
REMARK  196  A    between atoms: _487  and  _488
REMARK  197  A    between atoms: _487  and  _490
REMARK  198  A    between atoms: _490  and  _491
REMARK  199  A    between atoms: _494  and  _496
REMARK  200  A    between atoms: _496  and  _497
REMARK  201  A    between atoms: _496  and  _499
REMARK  202  A    between atoms: _499  and  _500
REMARK  203  A    between atoms: _500  and  _501
REMARK  204  A    between atoms: _504  and  _506
REMARK  205  A    between atoms: _506  and  _507
REMARK  206  A    between atoms: _510  and  _512
REMARK  207  A    between atoms: _512  and  _513
REMARK  208  A    between atoms: _512  and  _515
REMARK  209  A    between atoms: _515  and  _516
REMARK  210  A    between atoms: _518  and  _520
REMARK  211  A    between atoms: _520  and  _521
REMARK  212  A    between atoms: _523  and  _525
REMARK  213  A    between atoms: _525  and  _526
REMARK  214  A    between atoms: _525  and  _528
REMARK  215  A    between atoms: _528  and  _529
REMARK  216  A    between atoms: _532  and  _534
REMARK  217  A    between atoms: _534  and  _535
REMARK  218  A    between atoms: _537  and  _539
REMARK  219  A    between atoms: _539  and  _540
REMARK  220  A    between atoms: _539  and  _542
REMARK  221  A    between atoms: _542  and  _543
REMARK  222  A    between atoms: _548  and  _550
REMARK  223  A    between atoms: _550  and  _551
REMARK  224  A    between atoms: _550  and  _553
REMARK  225  A    between atoms: _553  and  _554
REMARK  226  A    between atoms: _554  and  _555
REMARK  227  A    between atoms: _562  and  _563
REMARK  228  A    between atoms: _563  and  _579
REMARK  229  A    between atoms: _564  and  _566
REMARK  230  A    between atoms: _566  and  _567
REMARK  231  A    between atoms: _567  and  _568
REMARK  232  A    between atoms: _572  and  _574
REMARK  233  A    between atoms: _574  and  _575
REMARK  234  A    between atoms: _574  and  _582
REMARK  235  A    between atoms: _575  and  _576
REMARK  236  A    between atoms: _576  and  _577
REMARK  237  A    between atoms: _577  and  _578
REMARK  238  A    between atoms: _578  and  _579
REMARK  239  A    between atoms: _584  and  _586
REMARK  240  A    between atoms: _586  and  _587
REMARK  241  A    between atoms: _586  and  _589
REMARK  242  A    between atoms: _589  and  _590
REMARK  243  A    between atoms: _593  and  _595
REMARK  244  A    between atoms: _595  and  _596
REMARK  245  A    between atoms: _598  and  _600
REMARK  246  A    between atoms: _600  and  _601
REMARK  247  A    between atoms: _604  and  _606
REMARK  248  A    between atoms: _606  and  _607
REMARK  249  A    between atoms: _606  and  _609
REMARK  250  A    between atoms: _609  and  _610
REMARK  251  A    between atoms: _615  and  _616
REMARK                            x       y       z     vdW  Elec       q    Type
REMARK                         _______ _______ _______ _____ _____    ______ ____
ROOT
ATOM      1  O   HOH     1      35.608  26.268  42.607  0.00  0.00    +0.000 OA
ENDROOT
TORSDOF 0
REMARK  Name = ../refined-set-2016/3l7d/3l7d_pocket.pdb
REMARK  251 active torsions:
REMARK  status: ('A' for Active; 'I' for Inactive)
REMARK    1  A    between atoms: _1  and  _3
REMARK    2  A    between atoms: _3  and  _4
REMARK    3  A    between atoms: _3  and  _6
REMARK    4  A    between atoms: _6  and  _7
REMARK    5  A    between atoms: _12  and  _13
REMARK    6  A    between atoms: _15  and  _17
REMARK    7  A    between atoms: _17  and  _18
REMARK    8  A    between atoms: _17  and  _20
REMARK    9  A    between atoms: _20  and  _21
REMARK   10  A    between atoms: _24  and  _26
REMARK   11  A    between atoms: _26  and  _27
REMARK   12  A    between atoms: _26  and  _29
REMARK   13  A    between atoms: _29  and  _30
REMARK   14  A    between atoms: _30  and  _31
REMARK   15  A    between atoms: _34  and  _36
REMARK   16  A    between atoms: _36  and  _37
REMARK   17  A    between atoms: _36  and  _39
REMARK   18  A    between atoms: _39  and  _40
REMARK   19  A    between atoms: _45  and  _47
REMARK   20  A    between atoms: _47  and  _48
REMARK   21  A    between atoms: _50  and  _52
REMARK   22  A    between atoms: _52  and  _53
REMARK   23  A    between atoms: _55  and  _57
REMARK   24  A    between atoms: _57  and  _58
REMARK   25  A    between atoms: _57  and  _60
REMARK   26  A    between atoms: _60  and  _61
REMARK   27  A    between atoms: _64  and  _66
REMARK   28  A    between atoms: _66  and  _67
REMARK   29  A    between atoms: _69  and  _71
REMARK   30  A    between atoms: _71  and  _72
REMARK   31  A    between atoms: _71  and  _74
REMARK   32  A    between atoms: _74  and  _75
REMARK   33  A    between atoms: _75  and  _76
REMARK   34  A    between atoms: _76  and  _77
REMARK   35  A    between atoms: _86  and  _88
REMARK   36  A    between atoms: _88  and  _89
REMARK   37  A    between atoms: _88  and  _91
REMARK   38  A    between atoms: _91  and  _92
REMARK   39  A    between atoms: _95  and  _97
REMARK   40  A    between atoms: _97  and  _98
REMARK   41  A    between atoms: _101  and  _103
REMARK   42  A    between atoms: _103  and  _104
REMARK   43  A    between atoms: _103  and  _106
REMARK   44  A    between atoms: _106  and  _107
REMARK   45  A    between atoms: _113  and  _115
REMARK   46  A    between atoms: _115  and  _116
REMARK   47  A    between atoms: _115  and  _118
REMARK   48  A    between atoms: _118  and  _119
REMARK   49  A    between atoms: _124  and  _125
REMARK   50  A    between atoms: _128  and  _129
REMARK   51  A    between atoms: _134  and  _136
REMARK   52  A    between atoms: _136  and  _137
REMARK   53  A    between atoms: _136  and  _139
REMARK   54  A    between atoms: _139  and  _140
REMARK   55  A    between atoms: _145  and  _147
REMARK   56  A    between atoms: _147  and  _148
REMARK   57  A    between atoms: _147  and  _150
REMARK   58  A    between atoms: _150  and  _151
REMARK   59  A    between atoms: _154  and  _156
REMARK   60  A    between atoms: _156  and  _157
REMARK   61  A    between atoms: _156  and  _159
REMARK   62  A    between atoms: _159  and  _160
REMARK   63  A    between atoms: _165  and  _167
REMARK   64  A    between atoms: _167  and  _168
REMARK   65  A    between atoms: _167  and  _170
REMARK   66  A    between atoms: _170  and  _171
REMARK   67  A    between atoms: _177  and  _179
REMARK   68  A    between atoms: _179  and  _180
REMARK   69  A    between atoms: _179  and  _182
REMARK   70  A    between atoms: _182  and  _183
REMARK   71  A    between atoms: _189  and  _191
REMARK   72  A    between atoms: _191  and  _192
REMARK   73  A    between atoms: _191  and  _194
REMARK   74  A    between atoms: _194  and  _195
REMARK   75  A    between atoms: _195  and  _196
REMARK   76  A    between atoms: _199  and  _201
REMARK   77  A    between atoms: _201  and  _202
REMARK   78  A    between atoms: _201  and  _204
REMARK   79  A    between atoms: _204  and  _205
REMARK   80  A    between atoms: _205  and  _206
REMARK   81  A    between atoms: _206  and  _207
REMARK   82  A    between atoms: _216  and  _218
REMARK   83  A    between atoms: _218  and  _219
REMARK   84  A    between atoms: _218  and  _221
REMARK   85  A    between atoms: _221  and  _222
REMARK   86  A    between atoms: _222  and  _223
REMARK   87  A    between atoms: _226  and  _228
REMARK   88  A    between atoms: _228  and  _229
REMARK   89  A    between atoms: _228  and  _231
REMARK   90  A    between atoms: _231  and  _232
REMARK   91  A    between atoms: _237  and  _239
REMARK   92  A    between atoms: _239  and  _240
REMARK   93  A    between atoms: _239  and  _242
REMARK   94  A    between atoms: _242  and  _243
REMARK   95  A    between atoms: _246  and  _248
REMARK   96  A    between atoms: _248  and  _249
REMARK   97  A    between atoms: _248  and  _251
REMARK   98  A    between atoms: _251  and  _252
REMARK   99  A    between atoms: _255  and  _257
REMARK  100  A    between atoms: _257  and  _258
REMARK  101  A    between atoms: _257  and  _260
REMARK  102  A    between atoms: _260  and  _261
REMARK  103  A    between atoms: _266  and  _268
REMARK  104  A    between atoms: _268  and  _269
REMARK  105  A    between atoms: _268  and  _271
REMARK  106  A    between atoms: _271  and  _272
REMARK  107  A    between atoms: _275  and  _277
REMARK  108  A    between atoms: _277  and  _278
REMARK  109  A    between atoms: _277  and  _280
REMARK  110  A    between atoms: _280  and  _281
REMARK  111  A    between atoms: _286  and  _288
REMARK  112  A    between atoms: _288  and  _289
REMARK  113  A    between atoms: _288  and  _291
REMARK  114  A    between atoms: _291  and  _292
REMARK  115  A    between atoms: _297  and  _299
REMARK  116  A    between atoms: _299  and  _300
REMARK  117  A    between atoms: _299  and  _302
REMARK  118  A    between atoms: _302  and  _303
REMARK  119  A    between atoms: _306  and  _308
REMARK  120  A    between atoms: _308  and  _309
REMARK  121  A    between atoms: _308  and  _311
REMARK  122  A    between atoms: _314  and  _316
REMARK  123  A    between atoms: _316  and  _317
REMARK  124  A    between atoms: _316  and  _319
REMARK  125  A    between atoms: _319  and  _320
REMARK  126  A    between atoms: _323  and  _325
REMARK  127  A    between atoms: _325  and  _326
REMARK  128  A    between atoms: _325  and  _328
REMARK  129  A    between atoms: _328  and  _329
REMARK  130  A    between atoms: _329  and  _330
REMARK  131  A    between atoms: _333  and  _335
REMARK  132  A    between atoms: _335  and  _336
REMARK  133  A    between atoms: _339  and  _341
REMARK  134  A    between atoms: _341  and  _342
REMARK  135  A    between atoms: _341  and  _344
REMARK  136  A    between atoms: _344  and  _345
REMARK  137  A    between atoms: _348  and  _350
REMARK  138  A    between atoms: _350  and  _351
REMARK  139  A    between atoms: _350  and  _353
REMARK  140  A    between atoms: _353  and  _354
REMARK  141  A    between atoms: _354  and  _355
REMARK  142  A    between atoms: _358  and  _360
REMARK  143  A    between atoms: _360  and  _361
REMARK  144  A    between atoms: _360  and  _363
REMARK  145  A    between atoms: _363  and  _364
REMARK  146  A    between atoms: _369  and  _371
REMARK  147  A    between atoms: _371  and  _372
REMARK  148  A    between atoms: _374  and  _376
REMARK  149  A    between atoms: _376  and  _377
REMARK  150  A    between atoms: _376  and  _379
REMARK  151  A    between atoms: _382  and  _384
REMARK  152  A    between atoms: _384  and  _385
REMARK  153  A    between atoms: _388  and  _390
REMARK  154  A    between atoms: _390  and  _391
REMARK  155  A    between atoms: _390  and  _393
REMARK  156  A    between atoms: _393  and  _394
REMARK  157  A    between atoms: _399  and  _401
REMARK  158  A    between atoms: _401  and  _402
REMARK  159  A    between atoms: _401  and  _404
REMARK  160  A    between atoms: _404  and  _405
REMARK  161  A    between atoms: _405  and  _406
REMARK  162  A    between atoms: _406  and  _407
REMARK  163  A    between atoms: _407  and  _408
REMARK  164  A    between atoms: _412  and  _414
REMARK  165  A    between atoms: _414  and  _415
REMARK  166  A    between atoms: _414  and  _417
REMARK  167  A    between atoms: _417  and  _418
REMARK  168  A    between atoms: _423  and  _425
REMARK  169  A    between atoms: _425  and  _426
REMARK  170  A    between atoms: _428  and  _430
REMARK  171  A    between atoms: _430  and  _431
REMARK  172  A    between atoms: _430  and  _433
REMARK  173  A    between atoms: _433  and  _434
REMARK  174  A    between atoms: _434  and  _435
REMARK  175  A    between atoms: _435  and  _436
REMARK  176  A    between atoms: _436  and  _437
REMARK  177  A    between atoms: _441  and  _443
REMARK  178  A    between atoms: _443  and  _444
REMARK  179  A    between atoms: _443  and  _446
REMARK  180  A    between atoms: _446  and  _447
REMARK  181  A    between atoms: _447  and  _448
REMARK  182  A    between atoms: _448  and  _449
REMARK  183  A    between atoms: _458  and  _460
REMARK  184  A    between atoms: _460  and  _461
REMARK  185  A    between atoms: _460  and  _463
REMARK  186  A    between atoms: _463  and  _464
REMARK  187  A    between atoms: _469  and  _470
REMARK  188  A    between atoms: _472  and  _474
REMARK  189  A    between atoms: _474  and  _475
REMARK  190  A    between atoms: _474  and  _477
REMARK  191  A    between atoms: _477  and  _478
REMARK  192  A    between atoms: _478  and  _479
REMARK  193  A    between atoms: _479  and  _480
REMARK  194  A    between atoms: _480  and  _481
REMARK  195  A    between atoms: _485  and  _487
REMARK  196  A    between atoms: _487  and  _488
REMARK  197  A    between atoms: _487  and  _490
REMARK  198  A    between atoms: _490  and  _491
REMARK  199  A    between atoms: _494  and  _496
REMARK  200  A    between atoms: _496  and  _497
REMARK  201  A    between atoms: _496  and  _499
REMARK  202  A    between atoms: _499  and  _500
REMARK  203  A    between atoms: _500  and  _501
REMARK  204  A    between atoms: _504  and  _506
REMARK  205  A    between atoms: _506  and  _507
REMARK  206  A    between atoms: _510  and  _512
REMARK  207  A    between atoms: _512  and  _513
REMARK  208  A    between atoms: _512  and  _515
REMARK  209  A    between atoms: _515  and  _516
REMARK  210  A    between atoms: _518  and  _520
REMARK  211  A    between atoms: _520  and  _521
REMARK  212  A    between atoms: _523  and  _525
REMARK  213  A    between atoms: _525  and  _526
REMARK  214  A    between atoms: _525  and  _528
REMARK  215  A    between atoms: _528  and  _529
REMARK  216  A    between atoms: _532  and  _534
REMARK  217  A    between atoms: _534  and  _535
REMARK  218  A    between atoms: _537  and  _539
REMARK  219  A    between atoms: _539  and  _540
REMARK  220  A    between atoms: _539  and  _542
REMARK  221  A    between atoms: _542  and  _543
REMARK  222  A    between atoms: _548  and  _550
REMARK  223  A    between atoms: _550  and  _551
REMARK  224  A    between atoms: _550  and  _553
REMARK  225  A    between atoms: _553  and  _554
REMARK  226  A    between atoms: _554  and  _555
REMARK  227  A    between atoms: _562  and  _563
REMARK  228  A    between atoms: _563  and  _579
REMARK  229  A    between atoms: _564  and  _566
REMARK  230  A    between atoms: _566  and  _567
REMARK  231  A    between atoms: _567  and  _568
REMARK  232  A    between atoms: _572  and  _574
REMARK  233  A    between atoms: _574  and  _575
REMARK  234  A    between atoms: _574  and  _582
REMARK  235  A    between atoms: _575  and  _576
REMARK  236  A    between atoms: _576  and  _577
REMARK  237  A    between atoms: _577  and  _578
REMARK  238  A    between atoms: _578  and  _579
REMARK  239  A    between atoms: _584  and  _586
REMARK  240  A    between atoms: _586  and  _587
REMARK  241  A    between atoms: _586  and  _589
REMARK  242  A    between atoms: _589  and  _590
REMARK  243  A    between atoms: _593  and  _595
REMARK  244  A    between atoms: _595  and  _596
REMARK  245  A    between atoms: _598  and  _600
REMARK  246  A    between atoms: _600  and  _601
REMARK  247  A    between atoms: _604  and  _606
REMARK  248  A    between atoms: _606  and  _607
REMARK  249  A    between atoms: _606  and  _609
REMARK  250  A    between atoms: _609  and  _610
REMARK  251  A    between atoms: _615  and  _616
REMARK                            x       y       z     vdW  Elec       q    Type
REMARK                         _______ _______ _______ _____ _____    ______ ____
ROOT
ATOM      1  O   HOH     1      33.688  12.812  26.450  0.00  0.00    +0.000 OA
ENDROOT
TORSDOF 0
REMARK  Name = ../refined-set-2016/3l7d/3l7d_pocket.pdb
REMARK  251 active torsions:
REMARK  status: ('A' for Active; 'I' for Inactive)
REMARK    1  A    between atoms: _1  and  _3
REMARK    2  A    between atoms: _3  and  _4
REMARK    3  A    between atoms: _3  and  _6
REMARK    4  A    between atoms: _6  and  _7
REMARK    5  A    between atoms: _12  and  _13
REMARK    6  A    between atoms: _15  and  _17
REMARK    7  A    between atoms: _17  and  _18
REMARK    8  A    between atoms: _17  and  _20
REMARK    9  A    between atoms: _20  and  _21
REMARK   10  A    between atoms: _24  and  _26
REMARK   11  A    between atoms: _26  and  _27
REMARK   12  A    between atoms: _26  and  _29
REMARK   13  A    between atoms: _29  and  _30
REMARK   14  A    between atoms: _30  and  _31
REMARK   15  A    between atoms: _34  and  _36
REMARK   16  A    between atoms: _36  and  _37
REMARK   17  A    between atoms: _36  and  _39
REMARK   18  A    between atoms: _39  and  _40
REMARK   19  A    between atoms: _45  and  _47
REMARK   20  A    between atoms: _47  and  _48
REMARK   21  A    between atoms: _50  and  _52
REMARK   22  A    between atoms: _52  and  _53
REMARK   23  A    between atoms: _55  and  _57
REMARK   24  A    between atoms: _57  and  _58
REMARK   25  A    between atoms: _57  and  _60
REMARK   26  A    between atoms: _60  and  _61
REMARK   27  A    between atoms: _64  and  _66
REMARK   28  A    between atoms: _66  and  _67
REMARK   29  A    between atoms: _69  and  _71
REMARK   30  A    between atoms: _71  and  _72
REMARK   31  A    between atoms: _71  and  _74
REMARK   32  A    between atoms: _74  and  _75
REMARK   33  A    between atoms: _75  and  _76
REMARK   34  A    between atoms: _76  and  _77
REMARK   35  A    between atoms: _86  and  _88
REMARK   36  A    between atoms: _88  and  _89
REMARK   37  A    between atoms: _88  and  _91
REMARK   38  A    between atoms: _91  and  _92
REMARK   39  A    between atoms: _95  and  _97
REMARK   40  A    between atoms: _97  and  _98
REMARK   41  A    between atoms: _101  and  _103
REMARK   42  A    between atoms: _103  and  _104
REMARK   43  A    between atoms: _103  and  _106
REMARK   44  A    between atoms: _106  and  _107
REMARK   45  A    between atoms: _113  and  _115
REMARK   46  A    between atoms: _115  and  _116
REMARK   47  A    between atoms: _115  and  _118
REMARK   48  A    between atoms: _118  and  _119
REMARK   49  A    between atoms: _124  and  _125
REMARK   50  A    between atoms: _128  and  _129
REMARK   51  A    between atoms: _134  and  _136
REMARK   52  A    between atoms: _136  and  _137
REMARK   53  A    between atoms: _136  and  _139
REMARK   54  A    between atoms: _139  and  _140
REMARK   55  A    between atoms: _145  and  _147
REMARK   56  A    between atoms: _147  and  _148
REMARK   57  A    between atoms: _147  and  _150
REMARK   58  A    between atoms: _150  and  _151
REMARK   59  A    between atoms: _154  and  _156
REMARK   60  A    between atoms: _156  and  _157
REMARK   61  A    between atoms: _156  and  _159
REMARK   62  A    between atoms: _159  and  _160
REMARK   63  A    between atoms: _165  and  _167
REMARK   64  A    between atoms: _167  and  _168
REMARK   65  A    between atoms: _167  and  _170
REMARK   66  A    between atoms: _170  and  _171
REMARK   67  A    between atoms: _177  and  _179
REMARK   68  A    between atoms: _179  and  _180
REMARK   69  A    between atoms: _179  and  _182
REMARK   70  A    between atoms: _182  and  _183
REMARK   71  A    between atoms: _189  and  _191
REMARK   72  A    between atoms: _191  and  _192
REMARK   73  A    between atoms: _191  and  _194
REMARK   74  A    between atoms: _194  and  _195
REMARK   75  A    between atoms: _195  and  _196
REMARK   76  A    between atoms: _199  and  _201
REMARK   77  A    between atoms: _201  and  _202
REMARK   78  A    between atoms: _201  and  _204
REMARK   79  A    between atoms: _204  and  _205
REMARK   80  A    between atoms: _205  and  _206
REMARK   81  A    between atoms: _206  and  _207
REMARK   82  A    between atoms: _216  and  _218
REMARK   83  A    between atoms: _218  and  _219
REMARK   84  A    between atoms: _218  and  _221
REMARK   85  A    between atoms: _221  and  _222
REMARK   86  A    between atoms: _222  and  _223
REMARK   87  A    between atoms: _226  and  _228
REMARK   88  A    between atoms: _228  and  _229
REMARK   89  A    between atoms: _228  and  _231
REMARK   90  A    between atoms: _231  and  _232
REMARK   91  A    between atoms: _237  and  _239
REMARK   92  A    between atoms: _239  and  _240
REMARK   93  A    between atoms: _239  and  _242
REMARK   94  A    between atoms: _242  and  _243
REMARK   95  A    between atoms: _246  and  _248
REMARK   96  A    between atoms: _248  and  _249
REMARK   97  A    between atoms: _248  and  _251
REMARK   98  A    between atoms: _251  and  _252
REMARK   99  A    between atoms: _255  and  _257
REMARK  100  A    between atoms: _257  and  _258
REMARK  101  A    between atoms: _257  and  _260
REMARK  102  A    between atoms: _260  and  _261
REMARK  103  A    between atoms: _266  and  _268
REMARK  104  A    between atoms: _268  and  _269
REMARK  105  A    between atoms: _268  and  _271
REMARK  106  A    between atoms: _271  and  _272
REMARK  107  A    between atoms: _275  and  _277
REMARK  108  A    between atoms: _277  and  _278
REMARK  109  A    between atoms: _277  and  _280
REMARK  110  A    between atoms: _280  and  _281
REMARK  111  A    between atoms: _286  and  _288
REMARK  112  A    between atoms: _288  and  _289
REMARK  113  A    between atoms: _288  and  _291
REMARK  114  A    between atoms: _291  and  _292
REMARK  115  A    between atoms: _297  and  _299
REMARK  116  A    between atoms: _299  and  _300
REMARK  117  A    between atoms: _299  and  _302
REMARK  118  A    between atoms: _302  and  _303
REMARK  119  A    between atoms: _306  and  _308
REMARK  120  A    between atoms: _308  and  _309
REMARK  121  A    between atoms: _308  and  _311
REMARK  122  A    between atoms: _314  and  _316
REMARK  123  A    between atoms: _316  and  _317
REMARK  124  A    between atoms: _316  and  _319
REMARK  125  A    between atoms: _319  and  _320
REMARK  126  A    between atoms: _323  and  _325
REMARK  127  A    between atoms: _325  and  _326
REMARK  128  A    between atoms: _325  and  _328
REMARK  129  A    between atoms: _328  and  _329
REMARK  130  A    between atoms: _329  and  _330
REMARK  131  A    between atoms: _333  and  _335
REMARK  132  A    between atoms: _335  and  _336
REMARK  133  A    between atoms: _339  and  _341
REMARK  134  A    between atoms: _341  and  _342
REMARK  135  A    between atoms: _341  and  _344
REMARK  136  A    between atoms: _344  and  _345
REMARK  137  A    between atoms: _348  and  _350
REMARK  138  A    between atoms: _350  and  _351
REMARK  139  A    between atoms: _350  and  _353
REMARK  140  A    between atoms: _353  and  _354
REMARK  141  A    between atoms: _354  and  _355
REMARK  142  A    between atoms: _358  and  _360
REMARK  143  A    between atoms: _360  and  _361
REMARK  144  A    between atoms: _360  and  _363
REMARK  145  A    between atoms: _363  and  _364
REMARK  146  A    between atoms: _369  and  _371
REMARK  147  A    between atoms: _371  and  _372
REMARK  148  A    between atoms: _374  and  _376
REMARK  149  A    between atoms: _376  and  _377
REMARK  150  A    between atoms: _376  and  _379
REMARK  151  A    between atoms: _382  and  _384
REMARK  152  A    between atoms: _384  and  _385
REMARK  153  A    between atoms: _388  and  _390
REMARK  154  A    between atoms: _390  and  _391
REMARK  155  A    between atoms: _390  and  _393
REMARK  156  A    between atoms: _393  and  _394
REMARK  157  A    between atoms: _399  and  _401
REMARK  158  A    between atoms: _401  and  _402
REMARK  159  A    between atoms: _401  and  _404
REMARK  160  A    between atoms: _404  and  _405
REMARK  161  A    between atoms: _405  and  _406
REMARK  162  A    between atoms: _406  and  _407
REMARK  163  A    between atoms: _407  and  _408
REMARK  164  A    between atoms: _412  and  _414
REMARK  165  A    between atoms: _414  and  _415
REMARK  166  A    between atoms: _414  and  _417
REMARK  167  A    between atoms: _417  and  _418
REMARK  168  A    between atoms: _423  and  _425
REMARK  169  A    between atoms: _425  and  _426
REMARK  170  A    between atoms: _428  and  _430
REMARK  171  A    between atoms: _430  and  _431
REMARK  172  A    between atoms: _430  and  _433
REMARK  173  A    between atoms: _433  and  _434
REMARK  174  A    between atoms: _434  and  _435
REMARK  175  A    between atoms: _435  and  _436
REMARK  176  A    between atoms: _436  and  _437
REMARK  177  A    between atoms: _441  and  _443
REMARK  178  A    between atoms: _443  and  _444
REMARK  179  A    between atoms: _443  and  _446
REMARK  180  A    between atoms: _446  and  _447
REMARK  181  A    between atoms: _447  and  _448
REMARK  182  A    between atoms: _448  and  _449
REMARK  183  A    between atoms: _458  and  _460
REMARK  184  A    between atoms: _460  and  _461
REMARK  185  A    between atoms: _460  and  _463
REMARK  186  A    between atoms: _463  and  _464
REMARK  187  A    between atoms: _469  and  _470
REMARK  188  A    between atoms: _472  and  _474
REMARK  189  A    between atoms: _474  and  _475
REMARK  190  A    between atoms: _474  and  _477
REMARK  191  A    between atoms: _477  and  _478
REMARK  192  A    between atoms: _478  and  _479
REMARK  193  A    between atoms: _479  and  _480
REMARK  194  A    between atoms: _480  and  _481
REMARK  195  A    between atoms: _485  and  _487
REMARK  196  A    between atoms: _487  and  _488
REMARK  197  A    between atoms: _487  and  _490
REMARK  198  A    between atoms: _490  and  _491
REMARK  199  A    between atoms: _494  and  _496
REMARK  200  A    between atoms: _496  and  _497
REMARK  201  A    between atoms: _496  and  _499
REMARK  202  A    between atoms: _499  and  _500
REMARK  203  A    between atoms: _500  and  _501
REMARK  204  A    between atoms: _504  and  _506
REMARK  205  A    between atoms: _506  and  _507
REMARK  206  A    between atoms: _510  and  _512
REMARK  207  A    between atoms: _512  and  _513
REMARK  208  A    between atoms: _512  and  _515
REMARK  209  A    between atoms: _515  and  _516
REMARK  210  A    between atoms: _518  and  _520
REMARK  211  A    between atoms: _520  and  _521
REMARK  212  A    between atoms: _523  and  _525
REMARK  213  A    between atoms: _525  and  _526
REMARK  214  A    between atoms: _525  and  _528
REMARK  215  A    between atoms: _528  and  _529
REMARK  216  A    between atoms: _532  and  _534
REMARK  217  A    between atoms: _534  and  _535
REMARK  218  A    between atoms: _537  and  _539
REMARK  219  A    between atoms: _539  and  _540
REMARK  220  A    between atoms: _539  and  _542
REMARK  221  A    between atoms: _542  and  _543
REMARK  222  A    between atoms: _548  and  _550
REMARK  223  A    between atoms: _550  and  _551
REMARK  224  A    between atoms: _550  and  _553
REMARK  225  A    between atoms: _553  and  _554
REMARK  226  A    between atoms: _554  and  _555
REMARK  227  A    between atoms: _562  and  _563
REMARK  228  A    between atoms: _563  and  _579
REMARK  229  A    between atoms: _564  and  _566
REMARK  230  A    between atoms: _566  and  _567
REMARK  231  A    between atoms: _567  and  _568
REMARK  232  A    between atoms: _572  and  _574
REMARK  233  A    between atoms: _574  and  _575
REMARK  234  A    between atoms: _574  and  _582
REMARK  235  A    between atoms: _575  and  _576
REMARK  236  A    between atoms: _576  and  _577
REMARK  237  A    between atoms: _577  and  _578
REMARK  238  A    between atoms: _578  and  _579
REMARK  239  A    between atoms: _584  and  _586
REMARK  240  A    between atoms: _586  and  _587
REMARK  241  A    between atoms: _586  and  _589
REMARK  242  A    between atoms: _589  and  _590
REMARK  243  A    between atoms: _593  and  _595
REMARK  244  A    between atoms: _595  and  _596
REMARK  245  A    between atoms: _598  and  _600
REMARK  246  A    between atoms: _600  and  _601
REMARK  247  A    between atoms: _604  and  _606
REMARK  248  A    between atoms: _606  and  _607
REMARK  249  A    between atoms: _606  and  _609
REMARK  250  A    between atoms: _609  and  _610
REMARK  251  A    between atoms: _615  and  _616
REMARK                            x       y       z     vdW  Elec       q    Type
REMARK                         _______ _______ _______ _____ _____    ______ ____
ROOT
ATOM      1  O   HOH     1      29.289  27.704  20.774  0.00  0.00    +0.000 OA
ENDROOT
TORSDOF 0
REMARK  Name = ../refined-set-2016/3l7d/3l7d_pocket.pdb
REMARK  251 active torsions:
REMARK  status: ('A' for Active; 'I' for Inactive)
REMARK    1  A    between atoms: _1  and  _3
REMARK    2  A    between atoms: _3  and  _4
REMARK    3  A    between atoms: _3  and  _6
REMARK    4  A    between atoms: _6  and  _7
REMARK    5  A    between atoms: _12  and  _13
REMARK    6  A    between atoms: _15  and  _17
REMARK    7  A    between atoms: _17  and  _18
REMARK    8  A    between atoms: _17  and  _20
REMARK    9  A    between atoms: _20  and  _21
REMARK   10  A    between atoms: _24  and  _26
REMARK   11  A    between atoms: _26  and  _27
REMARK   12  A    between atoms: _26  and  _29
REMARK   13  A    between atoms: _29  and  _30
REMARK   14  A    between atoms: _30  and  _31
REMARK   15  A    between atoms: _34  and  _36
REMARK   16  A    between atoms: _36  and  _37
REMARK   17  A    between atoms: _36  and  _39
REMARK   18  A    between atoms: _39  and  _40
REMARK   19  A    between atoms: _45  and  _47
REMARK   20  A    between atoms: _47  and  _48
REMARK   21  A    between atoms: _50  and  _52
REMARK   22  A    between atoms: _52  and  _53
REMARK   23  A    between atoms: _55  and  _57
REMARK   24  A    between atoms: _57  and  _58
REMARK   25  A    between atoms: _57  and  _60
REMARK   26  A    between atoms: _60  and  _61
REMARK   27  A    between atoms: _64  and  _66
REMARK   28  A    between atoms: _66  and  _67
REMARK   29  A    between atoms: _69  and  _71
REMARK   30  A    between atoms: _71  and  _72
REMARK   31  A    between atoms: _71  and  _74
REMARK   32  A    between atoms: _74  and  _75
REMARK   33  A    between atoms: _75  and  _76
REMARK   34  A    between atoms: _76  and  _77
REMARK   35  A    between atoms: _86  and  _88
REMARK   36  A    between atoms: _88  and  _89
REMARK   37  A    between atoms: _88  and  _91
REMARK   38  A    between atoms: _91  and  _92
REMARK   39  A    between atoms: _95  and  _97
REMARK   40  A    between atoms: _97  and  _98
REMARK   41  A    between atoms: _101  and  _103
REMARK   42  A    between atoms: _103  and  _104
REMARK   43  A    between atoms: _103  and  _106
REMARK   44  A    between atoms: _106  and  _107
REMARK   45  A    between atoms: _113  and  _115
REMARK   46  A    between atoms: _115  and  _116
REMARK   47  A    between atoms: _115  and  _118
REMARK   48  A    between atoms: _118  and  _119
REMARK   49  A    between atoms: _124  and  _125
REMARK   50  A    between atoms: _128  and  _129
REMARK   51  A    between atoms: _134  and  _136
REMARK   52  A    between atoms: _136  and  _137
REMARK   53  A    between atoms: _136  and  _139
REMARK   54  A    between atoms: _139  and  _140
REMARK   55  A    between atoms: _145  and  _147
REMARK   56  A    between atoms: _147  and  _148
REMARK   57  A    between atoms: _147  and  _150
REMARK   58  A    between atoms: _150  and  _151
REMARK   59  A    between atoms: _154  and  _156
REMARK   60  A    between atoms: _156  and  _157
REMARK   61  A    between atoms: _156  and  _159
REMARK   62  A    between atoms: _159  and  _160
REMARK   63  A    between atoms: _165  and  _167
REMARK   64  A    between atoms: _167  and  _168
REMARK   65  A    between atoms: _167  and  _170
REMARK   66  A    between atoms: _170  and  _171
REMARK   67  A    between atoms: _177  and  _179
REMARK   68  A    between atoms: _179  and  _180
REMARK   69  A    between atoms: _179  and  _182
REMARK   70  A    between atoms: _182  and  _183
REMARK   71  A    between atoms: _189  and  _191
REMARK   72  A    between atoms: _191  and  _192
REMARK   73  A    between atoms: _191  and  _194
REMARK   74  A    between atoms: _194  and  _195
REMARK   75  A    between atoms: _195  and  _196
REMARK   76  A    between atoms: _199  and  _201
REMARK   77  A    between atoms: _201  and  _202
REMARK   78  A    between atoms: _201  and  _204
REMARK   79  A    between atoms: _204  and  _205
REMARK   80  A    between atoms: _205  and  _206
REMARK   81  A    between atoms: _206  and  _207
REMARK   82  A    between atoms: _216  and  _218
REMARK   83  A    between atoms: _218  and  _219
REMARK   84  A    between atoms: _218  and  _221
REMARK   85  A    between atoms: _221  and  _222
REMARK   86  A    between atoms: _222  and  _223
REMARK   87  A    between atoms: _226  and  _228
REMARK   88  A    between atoms: _228  and  _229
REMARK   89  A    between atoms: _228  and  _231
REMARK   90  A    between atoms: _231  and  _232
REMARK   91  A    between atoms: _237  and  _239
REMARK   92  A    between atoms: _239  and  _240
REMARK   93  A    between atoms: _239  and  _242
REMARK   94  A    between atoms: _242  and  _243
REMARK   95  A    between atoms: _246  and  _248
REMARK   96  A    between atoms: _248  and  _249
REMARK   97  A    between atoms: _248  and  _251
REMARK   98  A    between atoms: _251  and  _252
REMARK   99  A    between atoms: _255  and  _257
REMARK  100  A    between atoms: _257  and  _258
REMARK  101  A    between atoms: _257  and  _260
REMARK  102  A    between atoms: _260  and  _261
REMARK  103  A    between atoms: _266  and  _268
REMARK  104  A    between atoms: _268  and  _269
REMARK  105  A    between atoms: _268  and  _271
REMARK  106  A    between atoms: _271  and  _272
REMARK  107  A    between atoms: _275  and  _277
REMARK  108  A    between atoms: _277  and  _278
REMARK  109  A    between atoms: _277  and  _280
REMARK  110  A    between atoms: _280  and  _281
REMARK  111  A    between atoms: _286  and  _288
REMARK  112  A    between atoms: _288  and  _289
REMARK  113  A    between atoms: _288  and  _291
REMARK  114  A    between atoms: _291  and  _292
REMARK  115  A    between atoms: _297  and  _299
REMARK  116  A    between atoms: _299  and  _300
REMARK  117  A    between atoms: _299  and  _302
REMARK  118  A    between atoms: _302  and  _303
REMARK  119  A    between atoms: _306  and  _308
REMARK  120  A    between atoms: _308  and  _309
REMARK  121  A    between atoms: _308  and  _311
REMARK  122  A    between atoms: _314  and  _316
REMARK  123  A    between atoms: _316  and  _317
REMARK  124  A    between atoms: _316  and  _319
REMARK  125  A    between atoms: _319  and  _320
REMARK  126  A    between atoms: _323  and  _325
REMARK  127  A    between atoms: _325  and  _326
REMARK  128  A    between atoms: _325  and  _328
REMARK  129  A    between atoms: _328  and  _329
REMARK  130  A    between atoms: _329  and  _330
REMARK  131  A    between atoms: _333  and  _335
REMARK  132  A    between atoms: _335  and  _336
REMARK  133  A    between atoms: _339  and  _341
REMARK  134  A    between atoms: _341  and  _342
REMARK  135  A    between atoms: _341  and  _344
REMARK  136  A    between atoms: _344  and  _345
REMARK  137  A    between atoms: _348  and  _350
REMARK  138  A    between atoms: _350  and  _351
REMARK  139  A    between atoms: _350  and  _353
REMARK  140  A    between atoms: _353  and  _354
REMARK  141  A    between atoms: _354  and  _355
REMARK  142  A    between atoms: _358  and  _360
REMARK  143  A    between atoms: _360  and  _361
REMARK  144  A    between atoms: _360  and  _363
REMARK  145  A    between atoms: _363  and  _364
REMARK  146  A    between atoms: _369  and  _371
REMARK  147  A    between atoms: _371  and  _372
REMARK  148  A    between atoms: _374  and  _376
REMARK  149  A    between atoms: _376  and  _377
REMARK  150  A    between atoms: _376  and  _379
REMARK  151  A    between atoms: _382  and  _384
REMARK  152  A    between atoms: _384  and  _385
REMARK  153  A    between atoms: _388  and  _390
REMARK  154  A    between atoms: _390  and  _391
REMARK  155  A    between atoms: _390  and  _393
REMARK  156  A    between atoms: _393  and  _394
REMARK  157  A    between atoms: _399  and  _401
REMARK  158  A    between atoms: _401  and  _402
REMARK  159  A    between atoms: _401  and  _404
REMARK  160  A    between atoms: _404  and  _405
REMARK  161  A    between atoms: _405  and  _406
REMARK  162  A    between atoms: _406  and  _407
REMARK  163  A    between atoms: _407  and  _408
REMARK  164  A    between atoms: _412  and  _414
REMARK  165  A    between atoms: _414  and  _415
REMARK  166  A    between atoms: _414  and  _417
REMARK  167  A    between atoms: _417  and  _418
REMARK  168  A    between atoms: _423  and  _425
REMARK  169  A    between atoms: _425  and  _426
REMARK  170  A    between atoms: _428  and  _430
REMARK  171  A    between atoms: _430  and  _431
REMARK  172  A    between atoms: _430  and  _433
REMARK  173  A    between atoms: _433  and  _434
REMARK  174  A    between atoms: _434  and  _435
REMARK  175  A    between atoms: _435  and  _436
REMARK  176  A    between atoms: _436  and  _437
REMARK  177  A    between atoms: _441  and  _443
REMARK  178  A    between atoms: _443  and  _444
REMARK  179  A    between atoms: _443  and  _446
REMARK  180  A    between atoms: _446  and  _447
REMARK  181  A    between atoms: _447  and  _448
REMARK  182  A    between atoms: _448  and  _449
REMARK  183  A    between atoms: _458  and  _460
REMARK  184  A    between atoms: _460  and  _461
REMARK  185  A    between atoms: _460  and  _463
REMARK  186  A    between atoms: _463  and  _464
REMARK  187  A    between atoms: _469  and  _470
REMARK  188  A    between atoms: _472  and  _474
REMARK  189  A    between atoms: _474  and  _475
REMARK  190  A    between atoms: _474  and  _477
REMARK  191  A    between atoms: _477  and  _478
REMARK  192  A    between atoms: _478  and  _479
REMARK  193  A    between atoms: _479  and  _480
REMARK  194  A    between atoms: _480  and  _481
REMARK  195  A    between atoms: _485  and  _487
REMARK  196  A    between atoms: _487  and  _488
REMARK  197  A    between atoms: _487  and  _490
REMARK  198  A    between atoms: _490  and  _491
REMARK  199  A    between atoms: _494  and  _496
REMARK  200  A    between atoms: _496  and  _497
REMARK  201  A    between atoms: _496  and  _499
REMARK  202  A    between atoms: _499  and  _500
REMARK  203  A    between atoms: _500  and  _501
REMARK  204  A    between atoms: _504  and  _506
REMARK  205  A    between atoms: _506  and  _507
REMARK  206  A    between atoms: _510  and  _512
REMARK  207  A    between atoms: _512  and  _513
REMARK  208  A    between atoms: _512  and  _515
REMARK  209  A    between atoms: _515  and  _516
REMARK  210  A    between atoms: _518  and  _520
REMARK  211  A    between atoms: _520  and  _521
REMARK  212  A    between atoms: _523  and  _525
REMARK  213  A    between atoms: _525  and  _526
REMARK  214  A    between atoms: _525  and  _528
REMARK  215  A    between atoms: _528  and  _529
REMARK  216  A    between atoms: _532  and  _534
REMARK  217  A    between atoms: _534  and  _535
REMARK  218  A    between atoms: _537  and  _539
REMARK  219  A    between atoms: _539  and  _540
REMARK  220  A    between atoms: _539  and  _542
REMARK  221  A    between atoms: _542  and  _543
REMARK  222  A    between atoms: _548  and  _550
REMARK  223  A    between atoms: _550  and  _551
REMARK  224  A    between atoms: _550  and  _553
REMARK  225  A    between atoms: _553  and  _554
REMARK  226  A    between atoms: _554  and  _555
REMARK  227  A    between atoms: _562  and  _563
REMARK  228  A    between atoms: _563  and  _579
REMARK  229  A    between atoms: _564  and  _566
REMARK  230  A    between atoms: _566  and  _567
REMARK  231  A    between atoms: _567  and  _568
REMARK  232  A    between atoms: _572  and  _574
REMARK  233  A    between atoms: _574  and  _575
REMARK  234  A    between atoms: _574  and  _582
REMARK  235  A    between atoms: _575  and  _576
REMARK  236  A    between atoms: _576  and  _577
REMARK  237  A    between atoms: _577  and  _578
REMARK  238  A    between atoms: _578  and  _579
REMARK  239  A    between atoms: _584  and  _586
REMARK  240  A    between atoms: _586  and  _587
REMARK  241  A    between atoms: _586  and  _589
REMARK  242  A    between atoms: _589  and  _590
REMARK  243  A    between atoms: _593  and  _595
REMARK  244  A    between atoms: _595  and  _596
REMARK  245  A    between atoms: _598  and  _600
REMARK  246  A    between atoms: _600  and  _601
REMARK  247  A    between atoms: _604  and  _606
REMARK  248  A    between atoms: _606  and  _607
REMARK  249  A    between atoms: _606  and  _609
REMARK  250  A    between atoms: _609  and  _610
REMARK  251  A    between atoms: _615  and  _616
REMARK                            x       y       z     vdW  Elec       q    Type
REMARK                         _______ _______ _______ _____ _____    ______ ____
ROOT
ATOM      1  O   HOH     1      26.323  16.658  28.844  0.00  0.00    +0.000 OA
ENDROOT
TORSDOF 0
REMARK  Name = ../refined-set-2016/3l7d/3l7d_pocket.pdb
REMARK  251 active torsions:
REMARK  status: ('A' for Active; 'I' for Inactive)
REMARK    1  A    between atoms: _1  and  _3
REMARK    2  A    between atoms: _3  and  _4
REMARK    3  A    between atoms: _3  and  _6
REMARK    4  A    between atoms: _6  and  _7
REMARK    5  A    between atoms: _12  and  _13
REMARK    6  A    between atoms: _15  and  _17
REMARK    7  A    between atoms: _17  and  _18
REMARK    8  A    between atoms: _17  and  _20
REMARK    9  A    between atoms: _20  and  _21
REMARK   10  A    between atoms: _24  and  _26
REMARK   11  A    between atoms: _26  and  _27
REMARK   12  A    between atoms: _26  and  _29
REMARK   13  A    between atoms: _29  and  _30
REMARK   14  A    between atoms: _30  and  _31
REMARK   15  A    between atoms: _34  and  _36
REMARK   16  A    between atoms: _36  and  _37
REMARK   17  A    between atoms: _36  and  _39
REMARK   18  A    between atoms: _39  and  _40
REMARK   19  A    between atoms: _45  and  _47
REMARK   20  A    between atoms: _47  and  _48
REMARK   21  A    between atoms: _50  and  _52
REMARK   22  A    between atoms: _52  and  _53
REMARK   23  A    between atoms: _55  and  _57
REMARK   24  A    between atoms: _57  and  _58
REMARK   25  A    between atoms: _57  and  _60
REMARK   26  A    between atoms: _60  and  _61
REMARK   27  A    between atoms: _64  and  _66
REMARK   28  A    between atoms: _66  and  _67
REMARK   29  A    between atoms: _69  and  _71
REMARK   30  A    between atoms: _71  and  _72
REMARK   31  A    between atoms: _71  and  _74
REMARK   32  A    between atoms: _74  and  _75
REMARK   33  A    between atoms: _75  and  _76
REMARK   34  A    between atoms: _76  and  _77
REMARK   35  A    between atoms: _86  and  _88
REMARK   36  A    between atoms: _88  and  _89
REMARK   37  A    between atoms: _88  and  _91
REMARK   38  A    between atoms: _91  and  _92
REMARK   39  A    between atoms: _95  and  _97
REMARK   40  A    between atoms: _97  and  _98
REMARK   41  A    between atoms: _101  and  _103
REMARK   42  A    between atoms: _103  and  _104
REMARK   43  A    between atoms: _103  and  _106
REMARK   44  A    between atoms: _106  and  _107
REMARK   45  A    between atoms: _113  and  _115
REMARK   46  A    between atoms: _115  and  _116
REMARK   47  A    between atoms: _115  and  _118
REMARK   48  A    between atoms: _118  and  _119
REMARK   49  A    between atoms: _124  and  _125
REMARK   50  A    between atoms: _128  and  _129
REMARK   51  A    between atoms: _134  and  _136
REMARK   52  A    between atoms: _136  and  _137
REMARK   53  A    between atoms: _136  and  _139
REMARK   54  A    between atoms: _139  and  _140
REMARK   55  A    between atoms: _145  and  _147
REMARK   56  A    between atoms: _147  and  _148
REMARK   57  A    between atoms: _147  and  _150
REMARK   58  A    between atoms: _150  and  _151
REMARK   59  A    between atoms: _154  and  _156
REMARK   60  A    between atoms: _156  and  _157
REMARK   61  A    between atoms: _156  and  _159
REMARK   62  A    between atoms: _159  and  _160
REMARK   63  A    between atoms: _165  and  _167
REMARK   64  A    between atoms: _167  and  _168
REMARK   65  A    between atoms: _167  and  _170
REMARK   66  A    between atoms: _170  and  _171
REMARK   67  A    between atoms: _177  and  _179
REMARK   68  A    between atoms: _179  and  _180
REMARK   69  A    between atoms: _179  and  _182
REMARK   70  A    between atoms: _182  and  _183
REMARK   71  A    between atoms: _189  and  _191
REMARK   72  A    between atoms: _191  and  _192
REMARK   73  A    between atoms: _191  and  _194
REMARK   74  A    between atoms: _194  and  _195
REMARK   75  A    between atoms: _195  and  _196
REMARK   76  A    between atoms: _199  and  _201
REMARK   77  A    between atoms: _201  and  _202
REMARK   78  A    between atoms: _201  and  _204
REMARK   79  A    between atoms: _204  and  _205
REMARK   80  A    between atoms: _205  and  _206
REMARK   81  A    between atoms: _206  and  _207
REMARK   82  A    between atoms: _216  and  _218
REMARK   83  A    between atoms: _218  and  _219
REMARK   84  A    between atoms: _218  and  _221
REMARK   85  A    between atoms: _221  and  _222
REMARK   86  A    between atoms: _222  and  _223
REMARK   87  A    between atoms: _226  and  _228
REMARK   88  A    between atoms: _228  and  _229
REMARK   89  A    between atoms: _228  and  _231
REMARK   90  A    between atoms: _231  and  _232
REMARK   91  A    between atoms: _237  and  _239
REMARK   92  A    between atoms: _239  and  _240
REMARK   93  A    between atoms: _239  and  _242
REMARK   94  A    between atoms: _242  and  _243
REMARK   95  A    between atoms: _246  and  _248
REMARK   96  A    between atoms: _248  and  _249
REMARK   97  A    between atoms: _248  and  _251
REMARK   98  A    between atoms: _251  and  _252
REMARK   99  A    between atoms: _255  and  _257
REMARK  100  A    between atoms: _257  and  _258
REMARK  101  A    between atoms: _257  and  _260
REMARK  102  A    between atoms: _260  and  _261
REMARK  103  A    between atoms: _266  and  _268
REMARK  104  A    between atoms: _268  and  _269
REMARK  105  A    between atoms: _268  and  _271
REMARK  106  A    between atoms: _271  and  _272
REMARK  107  A    between atoms: _275  and  _277
REMARK  108  A    between atoms: _277  and  _278
REMARK  109  A    between atoms: _277  and  _280
REMARK  110  A    between atoms: _280  and  _281
REMARK  111  A    between atoms: _286  and  _288
REMARK  112  A    between atoms: _288  and  _289
REMARK  113  A    between atoms: _288  and  _291
REMARK  114  A    between atoms: _291  and  _292
REMARK  115  A    between atoms: _297  and  _299
REMARK  116  A    between atoms: _299  and  _300
REMARK  117  A    between atoms: _299  and  _302
REMARK  118  A    between atoms: _302  and  _303
REMARK  119  A    between atoms: _306  and  _308
REMARK  120  A    between atoms: _308  and  _309
REMARK  121  A    between atoms: _308  and  _311
REMARK  122  A    between atoms: _314  and  _316
REMARK  123  A    between atoms: _316  and  _317
REMARK  124  A    between atoms: _316  and  _319
REMARK  125  A    between atoms: _319  and  _320
REMARK  126  A    between atoms: _323  and  _325
REMARK  127  A    between atoms: _325  and  _326
REMARK  128  A    between atoms: _325  and  _328
REMARK  129  A    between atoms: _328  and  _329
REMARK  130  A    between atoms: _329  and  _330
REMARK  131  A    between atoms: _333  and  _335
REMARK  132  A    between atoms: _335  and  _336
REMARK  133  A    between atoms: _339  and  _341
REMARK  134  A    between atoms: _341  and  _342
REMARK  135  A    between atoms: _341  and  _344
REMARK  136  A    between atoms: _344  and  _345
REMARK  137  A    between atoms: _348  and  _350
REMARK  138  A    between atoms: _350  and  _351
REMARK  139  A    between atoms: _350  and  _353
REMARK  140  A    between atoms: _353  and  _354
REMARK  141  A    between atoms: _354  and  _355
REMARK  142  A    between atoms: _358  and  _360
REMARK  143  A    between atoms: _360  and  _361
REMARK  144  A    between atoms: _360  and  _363
REMARK  145  A    between atoms: _363  and  _364
REMARK  146  A    between atoms: _369  and  _371
REMARK  147  A    between atoms: _371  and  _372
REMARK  148  A    between atoms: _374  and  _376
REMARK  149  A    between atoms: _376  and  _377
REMARK  150  A    between atoms: _376  and  _379
REMARK  151  A    between atoms: _382  and  _384
REMARK  152  A    between atoms: _384  and  _385
REMARK  153  A    between atoms: _388  and  _390
REMARK  154  A    between atoms: _390  and  _391
REMARK  155  A    between atoms: _390  and  _393
REMARK  156  A    between atoms: _393  and  _394
REMARK  157  A    between atoms: _399  and  _401
REMARK  158  A    between atoms: _401  and  _402
REMARK  159  A    between atoms: _401  and  _404
REMARK  160  A    between atoms: _404  and  _405
REMARK  161  A    between atoms: _405  and  _406
REMARK  162  A    between atoms: _406  and  _407
REMARK  163  A    between atoms: _407  and  _408
REMARK  164  A    between atoms: _412  and  _414
REMARK  165  A    between atoms: _414  and  _415
REMARK  166  A    between atoms: _414  and  _417
REMARK  167  A    between atoms: _417  and  _418
REMARK  168  A    between atoms: _423  and  _425
REMARK  169  A    between atoms: _425  and  _426
REMARK  170  A    between atoms: _428  and  _430
REMARK  171  A    between atoms: _430  and  _431
REMARK  172  A    between atoms: _430  and  _433
REMARK  173  A    between atoms: _433  and  _434
REMARK  174  A    between atoms: _434  and  _435
REMARK  175  A    between atoms: _435  and  _436
REMARK  176  A    between atoms: _436  and  _437
REMARK  177  A    between atoms: _441  and  _443
REMARK  178  A    between atoms: _443  and  _444
REMARK  179  A    between atoms: _443  and  _446
REMARK  180  A    between atoms: _446  and  _447
REMARK  181  A    between atoms: _447  and  _448
REMARK  182  A    between atoms: _448  and  _449
REMARK  183  A    between atoms: _458  and  _460
REMARK  184  A    between atoms: _460  and  _461
REMARK  185  A    between atoms: _460  and  _463
REMARK  186  A    between atoms: _463  and  _464
REMARK  187  A    between atoms: _469  and  _470
REMARK  188  A    between atoms: _472  and  _474
REMARK  189  A    between atoms: _474  and  _475
REMARK  190  A    between atoms: _474  and  _477
REMARK  191  A    between atoms: _477  and  _478
REMARK  192  A    between atoms: _478  and  _479
REMARK  193  A    between atoms: _479  and  _480
REMARK  194  A    between atoms: _480  and  _481
REMARK  195  A    between atoms: _485  and  _487
REMARK  196  A    between atoms: _487  and  _488
REMARK  197  A    between atoms: _487  and  _490
REMARK  198  A    between atoms: _490  and  _491
REMARK  199  A    between atoms: _494  and  _496
REMARK  200  A    between atoms: _496  and  _497
REMARK  201  A    between atoms: _496  and  _499
REMARK  202  A    between atoms: _499  and  _500
REMARK  203  A    between atoms: _500  and  _501
REMARK  204  A    between atoms: _504  and  _506
REMARK  205  A    between atoms: _506  and  _507
REMARK  206  A    between atoms: _510  and  _512
REMARK  207  A    between atoms: _512  and  _513
REMARK  208  A    between atoms: _512  and  _515
REMARK  209  A    between atoms: _515  and  _516
REMARK  210  A    between atoms: _518  and  _520
REMARK  211  A    between atoms: _520  and  _521
REMARK  212  A    between atoms: _523  and  _525
REMARK  213  A    between atoms: _525  and  _526
REMARK  214  A    between atoms: _525  and  _528
REMARK  215  A    between atoms: _528  and  _529
REMARK  216  A    between atoms: _532  and  _534
REMARK  217  A    between atoms: _534  and  _535
REMARK  218  A    between atoms: _537  and  _539
REMARK  219  A    between atoms: _539  and  _540
REMARK  220  A    between atoms: _539  and  _542
REMARK  221  A    between atoms: _542  and  _543
REMARK  222  A    between atoms: _548  and  _550
REMARK  223  A    between atoms: _550  and  _551
REMARK  224  A    between atoms: _550  and  _553
REMARK  225  A    between atoms: _553  and  _554
REMARK  226  A    between atoms: _554  and  _555
REMARK  227  A    between atoms: _562  and  _563
REMARK  228  A    between atoms: _563  and  _579
REMARK  229  A    between atoms: _564  and  _566
REMARK  230  A    between atoms: _566  and  _567
REMARK  231  A    between atoms: _567  and  _568
REMARK  232  A    between atoms: _572  and  _574
REMARK  233  A    between atoms: _574  and  _575
REMARK  234  A    between atoms: _574  and  _582
REMARK  235  A    between atoms: _575  and  _576
REMARK  236  A    between atoms: _576  and  _577
REMARK  237  A    between atoms: _577  and  _578
REMARK  238  A    between atoms: _578  and  _579
REMARK  239  A    between atoms: _584  and  _586
REMARK  240  A    between atoms: _586  and  _587
REMARK  241  A    between atoms: _586  and  _589
REMARK  242  A    between atoms: _589  and  _590
REMARK  243  A    between atoms: _593  and  _595
REMARK  244  A    between atoms: _595  and  _596
REMARK  245  A    between atoms: _598  and  _600
REMARK  246  A    between atoms: _600  and  _601
REMARK  247  A    between atoms: _604  and  _606
REMARK  248  A    between atoms: _606  and  _607
REMARK  249  A    between atoms: _606  and  _609
REMARK  250  A    between atoms: _609  and  _610
REMARK  251  A    between atoms: _615  and  _616
REMARK                            x       y       z     vdW  Elec       q    Type
REMARK                         _______ _______ _______ _____ _____    ______ ____
ROOT
ATOM      1  O   HOH     1      44.388  23.051  32.433  0.00  0.00    +0.000 OA
ENDROOT
TORSDOF 0
REMARK  Name = ../refined-set-2016/3l7d/3l7d_pocket.pdb
REMARK  251 active torsions:
REMARK  status: ('A' for Active; 'I' for Inactive)
REMARK    1  A    between atoms: _1  and  _3
REMARK    2  A    between atoms: _3  and  _4
REMARK    3  A    between atoms: _3  and  _6
REMARK    4  A    between atoms: _6  and  _7
REMARK    5  A    between atoms: _12  and  _13
REMARK    6  A    between atoms: _15  and  _17
REMARK    7  A    between atoms: _17  and  _18
REMARK    8  A    between atoms: _17  and  _20
REMARK    9  A    between atoms: _20  and  _21
REMARK   10  A    between atoms: _24  and  _26
REMARK   11  A    between atoms: _26  and  _27
REMARK   12  A    between atoms: _26  and  _29
REMARK   13  A    between atoms: _29  and  _30
REMARK   14  A    between atoms: _30  and  _31
REMARK   15  A    between atoms: _34  and  _36
REMARK   16  A    between atoms: _36  and  _37
REMARK   17  A    between atoms: _36  and  _39
REMARK   18  A    between atoms: _39  and  _40
REMARK   19  A    between atoms: _45  and  _47
REMARK   20  A    between atoms: _47  and  _48
REMARK   21  A    between atoms: _50  and  _52
REMARK   22  A    between atoms: _52  and  _53
REMARK   23  A    between atoms: _55  and  _57
REMARK   24  A    between atoms: _57  and  _58
REMARK   25  A    between atoms: _57  and  _60
REMARK   26  A    between atoms: _60  and  _61
REMARK   27  A    between atoms: _64  and  _66
REMARK   28  A    between atoms: _66  and  _67
REMARK   29  A    between atoms: _69  and  _71
REMARK   30  A    between atoms: _71  and  _72
REMARK   31  A    between atoms: _71  and  _74
REMARK   32  A    between atoms: _74  and  _75
REMARK   33  A    between atoms: _75  and  _76
REMARK   34  A    between atoms: _76  and  _77
REMARK   35  A    between atoms: _86  and  _88
REMARK   36  A    between atoms: _88  and  _89
REMARK   37  A    between atoms: _88  and  _91
REMARK   38  A    between atoms: _91  and  _92
REMARK   39  A    between atoms: _95  and  _97
REMARK   40  A    between atoms: _97  and  _98
REMARK   41  A    between atoms: _101  and  _103
REMARK   42  A    between atoms: _103  and  _104
REMARK   43  A    between atoms: _103  and  _106
REMARK   44  A    between atoms: _106  and  _107
REMARK   45  A    between atoms: _113  and  _115
REMARK   46  A    between atoms: _115  and  _116
REMARK   47  A    between atoms: _115  and  _118
REMARK   48  A    between atoms: _118  and  _119
REMARK   49  A    between atoms: _124  and  _125
REMARK   50  A    between atoms: _128  and  _129
REMARK   51  A    between atoms: _134  and  _136
REMARK   52  A    between atoms: _136  and  _137
REMARK   53  A    between atoms: _136  and  _139
REMARK   54  A    between atoms: _139  and  _140
REMARK   55  A    between atoms: _145  and  _147
REMARK   56  A    between atoms: _147  and  _148
REMARK   57  A    between atoms: _147  and  _150
REMARK   58  A    between atoms: _150  and  _151
REMARK   59  A    between atoms: _154  and  _156
REMARK   60  A    between atoms: _156  and  _157
REMARK   61  A    between atoms: _156  and  _159
REMARK   62  A    between atoms: _159  and  _160
REMARK   63  A    between atoms: _165  and  _167
REMARK   64  A    between atoms: _167  and  _168
REMARK   65  A    between atoms: _167  and  _170
REMARK   66  A    between atoms: _170  and  _171
REMARK   67  A    between atoms: _177  and  _179
REMARK   68  A    between atoms: _179  and  _180
REMARK   69  A    between atoms: _179  and  _182
REMARK   70  A    between atoms: _182  and  _183
REMARK   71  A    between atoms: _189  and  _191
REMARK   72  A    between atoms: _191  and  _192
REMARK   73  A    between atoms: _191  and  _194
REMARK   74  A    between atoms: _194  and  _195
REMARK   75  A    between atoms: _195  and  _196
REMARK   76  A    between atoms: _199  and  _201
REMARK   77  A    between atoms: _201  and  _202
REMARK   78  A    between atoms: _201  and  _204
REMARK   79  A    between atoms: _204  and  _205
REMARK   80  A    between atoms: _205  and  _206
REMARK   81  A    between atoms: _206  and  _207
REMARK   82  A    between atoms: _216  and  _218
REMARK   83  A    between atoms: _218  and  _219
REMARK   84  A    between atoms: _218  and  _221
REMARK   85  A    between atoms: _221  and  _222
REMARK   86  A    between atoms: _222  and  _223
REMARK   87  A    between atoms: _226  and  _228
REMARK   88  A    between atoms: _228  and  _229
REMARK   89  A    between atoms: _228  and  _231
REMARK   90  A    between atoms: _231  and  _232
REMARK   91  A    between atoms: _237  and  _239
REMARK   92  A    between atoms: _239  and  _240
REMARK   93  A    between atoms: _239  and  _242
REMARK   94  A    between atoms: _242  and  _243
REMARK   95  A    between atoms: _246  and  _248
REMARK   96  A    between atoms: _248  and  _249
REMARK   97  A    between atoms: _248  and  _251
REMARK   98  A    between atoms: _251  and  _252
REMARK   99  A    between atoms: _255  and  _257
REMARK  100  A    between atoms: _257  and  _258
REMARK  101  A    between atoms: _257  and  _260
REMARK  102  A    between atoms: _260  and  _261
REMARK  103  A    between atoms: _266  and  _268
REMARK  104  A    between atoms: _268  and  _269
REMARK  105  A    between atoms: _268  and  _271
REMARK  106  A    between atoms: _271  and  _272
REMARK  107  A    between atoms: _275  and  _277
REMARK  108  A    between atoms: _277  and  _278
REMARK  109  A    between atoms: _277  and  _280
REMARK  110  A    between atoms: _280  and  _281
REMARK  111  A    between atoms: _286  and  _288
REMARK  112  A    between atoms: _288  and  _289
REMARK  113  A    between atoms: _288  and  _291
REMARK  114  A    between atoms: _291  and  _292
REMARK  115  A    between atoms: _297  and  _299
REMARK  116  A    between atoms: _299  and  _300
REMARK  117  A    between atoms: _299  and  _302
REMARK  118  A    between atoms: _302  and  _303
REMARK  119  A    between atoms: _306  and  _308
REMARK  120  A    between atoms: _308  and  _309
REMARK  121  A    between atoms: _308  and  _311
REMARK  122  A    between atoms: _314  and  _316
REMARK  123  A    between atoms: _316  and  _317
REMARK  124  A    between atoms: _316  and  _319
REMARK  125  A    between atoms: _319  and  _320
REMARK  126  A    between atoms: _323  and  _325
REMARK  127  A    between atoms: _325  and  _326
REMARK  128  A    between atoms: _325  and  _328
REMARK  129  A    between atoms: _328  and  _329
REMARK  130  A    between atoms: _329  and  _330
REMARK  131  A    between atoms: _333  and  _335
REMARK  132  A    between atoms: _335  and  _336
REMARK  133  A    between atoms: _339  and  _341
REMARK  134  A    between atoms: _341  and  _342
REMARK  135  A    between atoms: _341  and  _344
REMARK  136  A    between atoms: _344  and  _345
REMARK  137  A    between atoms: _348  and  _350
REMARK  138  A    between atoms: _350  and  _351
REMARK  139  A    between atoms: _350  and  _353
REMARK  140  A    between atoms: _353  and  _354
REMARK  141  A    between atoms: _354  and  _355
REMARK  142  A    between atoms: _358  and  _360
REMARK  143  A    between atoms: _360  and  _361
REMARK  144  A    between atoms: _360  and  _363
REMARK  145  A    between atoms: _363  and  _364
REMARK  146  A    between atoms: _369  and  _371
REMARK  147  A    between atoms: _371  and  _372
REMARK  148  A    between atoms: _374  and  _376
REMARK  149  A    between atoms: _376  and  _377
REMARK  150  A    between atoms: _376  and  _379
REMARK  151  A    between atoms: _382  and  _384
REMARK  152  A    between atoms: _384  and  _385
REMARK  153  A    between atoms: _388  and  _390
REMARK  154  A    between atoms: _390  and  _391
REMARK  155  A    between atoms: _390  and  _393
REMARK  156  A    between atoms: _393  and  _394
REMARK  157  A    between atoms: _399  and  _401
REMARK  158  A    between atoms: _401  and  _402
REMARK  159  A    between atoms: _401  and  _404
REMARK  160  A    between atoms: _404  and  _405
REMARK  161  A    between atoms: _405  and  _406
REMARK  162  A    between atoms: _406  and  _407
REMARK  163  A    between atoms: _407  and  _408
REMARK  164  A    between atoms: _412  and  _414
REMARK  165  A    between atoms: _414  and  _415
REMARK  166  A    between atoms: _414  and  _417
REMARK  167  A    between atoms: _417  and  _418
REMARK  168  A    between atoms: _423  and  _425
REMARK  169  A    between atoms: _425  and  _426
REMARK  170  A    between atoms: _428  and  _430
REMARK  171  A    between atoms: _430  and  _431
REMARK  172  A    between atoms: _430  and  _433
REMARK  173  A    between atoms: _433  and  _434
REMARK  174  A    between atoms: _434  and  _435
REMARK  175  A    between atoms: _435  and  _436
REMARK  176  A    between atoms: _436  and  _437
REMARK  177  A    between atoms: _441  and  _443
REMARK  178  A    between atoms: _443  and  _444
REMARK  179  A    between atoms: _443  and  _446
REMARK  180  A    between atoms: _446  and  _447
REMARK  181  A    between atoms: _447  and  _448
REMARK  182  A    between atoms: _448  and  _449
REMARK  183  A    between atoms: _458  and  _460
REMARK  184  A    between atoms: _460  and  _461
REMARK  185  A    between atoms: _460  and  _463
REMARK  186  A    between atoms: _463  and  _464
REMARK  187  A    between atoms: _469  and  _470
REMARK  188  A    between atoms: _472  and  _474
REMARK  189  A    between atoms: _474  and  _475
REMARK  190  A    between atoms: _474  and  _477
REMARK  191  A    between atoms: _477  and  _478
REMARK  192  A    between atoms: _478  and  _479
REMARK  193  A    between atoms: _479  and  _480
REMARK  194  A    between atoms: _480  and  _481
REMARK  195  A    between atoms: _485  and  _487
REMARK  196  A    between atoms: _487  and  _488
REMARK  197  A    between atoms: _487  and  _490
REMARK  198  A    between atoms: _490  and  _491
REMARK  199  A    between atoms: _494  and  _496
REMARK  200  A    between atoms: _496  and  _497
REMARK  201  A    between atoms: _496  and  _499
REMARK  202  A    between atoms: _499  and  _500
REMARK  203  A    between atoms: _500  and  _501
REMARK  204  A    between atoms: _504  and  _506
REMARK  205  A    between atoms: _506  and  _507
REMARK  206  A    between atoms: _510  and  _512
REMARK  207  A    between atoms: _512  and  _513
REMARK  208  A    between atoms: _512  and  _515
REMARK  209  A    between atoms: _515  and  _516
REMARK  210  A    between atoms: _518  and  _520
REMARK  211  A    between atoms: _520  and  _521
REMARK  212  A    between atoms: _523  and  _525
REMARK  213  A    between atoms: _525  and  _526
REMARK  214  A    between atoms: _525  and  _528
REMARK  215  A    between atoms: _528  and  _529
REMARK  216  A    between atoms: _532  and  _534
REMARK  217  A    between atoms: _534  and  _535
REMARK  218  A    between atoms: _537  and  _539
REMARK  219  A    between atoms: _539  and  _540
REMARK  220  A    between atoms: _539  and  _542
REMARK  221  A    between atoms: _542  and  _543
REMARK  222  A    between atoms: _548  and  _550
REMARK  223  A    between atoms: _550  and  _551
REMARK  224  A    between atoms: _550  and  _553
REMARK  225  A    between atoms: _553  and  _554
REMARK  226  A    between atoms: _554  and  _555
REMARK  227  A    between atoms: _562  and  _563
REMARK  228  A    between atoms: _563  and  _579
REMARK  229  A    between atoms: _564  and  _566
REMARK  230  A    between atoms: _566  and  _567
REMARK  231  A    between atoms: _567  and  _568
REMARK  232  A    between atoms: _572  and  _574
REMARK  233  A    between atoms: _574  and  _575
REMARK  234  A    between atoms: _574  and  _582
REMARK  235  A    between atoms: _575  and  _576
REMARK  236  A    between atoms: _576  and  _577
REMARK  237  A    between atoms: _577  and  _578
REMARK  238  A    between atoms: _578  and  _579
REMARK  239  A    between atoms: _584  and  _586
REMARK  240  A    between atoms: _586  and  _587
REMARK  241  A    between atoms: _586  and  _589
REMARK  242  A    between atoms: _589  and  _590
REMARK  243  A    between atoms: _593  and  _595
REMARK  244  A    between atoms: _595  and  _596
REMARK  245  A    between atoms: _598  and  _600
REMARK  246  A    between atoms: _600  and  _601
REMARK  247  A    between atoms: _604  and  _606
REMARK  248  A    between atoms: _606  and  _607
REMARK  249  A    between atoms: _606  and  _609
REMARK  250  A    between atoms: _609  and  _610
REMARK  251  A    between atoms: _615  and  _616
REMARK                            x       y       z     vdW  Elec       q    Type
REMARK                         _______ _______ _______ _____ _____    ______ ____
ROOT
ATOM      1  O   HOH     1      30.351  25.925  29.070  0.00  0.00    +0.000 OA
ENDROOT
TORSDOF 0
REMARK  Name = ../refined-set-2016/3l7d/3l7d_pocket.pdb
REMARK  251 active torsions:
REMARK  status: ('A' for Active; 'I' for Inactive)
REMARK    1  A    between atoms: _1  and  _3
REMARK    2  A    between atoms: _3  and  _4
REMARK    3  A    between atoms: _3  and  _6
REMARK    4  A    between atoms: _6  and  _7
REMARK    5  A    between atoms: _12  and  _13
REMARK    6  A    between atoms: _15  and  _17
REMARK    7  A    between atoms: _17  and  _18
REMARK    8  A    between atoms: _17  and  _20
REMARK    9  A    between atoms: _20  and  _21
REMARK   10  A    between atoms: _24  and  _26
REMARK   11  A    between atoms: _26  and  _27
REMARK   12  A    between atoms: _26  and  _29
REMARK   13  A    between atoms: _29  and  _30
REMARK   14  A    between atoms: _30  and  _31
REMARK   15  A    between atoms: _34  and  _36
REMARK   16  A    between atoms: _36  and  _37
REMARK   17  A    between atoms: _36  and  _39
REMARK   18  A    between atoms: _39  and  _40
REMARK   19  A    between atoms: _45  and  _47
REMARK   20  A    between atoms: _47  and  _48
REMARK   21  A    between atoms: _50  and  _52
REMARK   22  A    between atoms: _52  and  _53
REMARK   23  A    between atoms: _55  and  _57
REMARK   24  A    between atoms: _57  and  _58
REMARK   25  A    between atoms: _57  and  _60
REMARK   26  A    between atoms: _60  and  _61
REMARK   27  A    between atoms: _64  and  _66
REMARK   28  A    between atoms: _66  and  _67
REMARK   29  A    between atoms: _69  and  _71
REMARK   30  A    between atoms: _71  and  _72
REMARK   31  A    between atoms: _71  and  _74
REMARK   32  A    between atoms: _74  and  _75
REMARK   33  A    between atoms: _75  and  _76
REMARK   34  A    between atoms: _76  and  _77
REMARK   35  A    between atoms: _86  and  _88
REMARK   36  A    between atoms: _88  and  _89
REMARK   37  A    between atoms: _88  and  _91
REMARK   38  A    between atoms: _91  and  _92
REMARK   39  A    between atoms: _95  and  _97
REMARK   40  A    between atoms: _97  and  _98
REMARK   41  A    between atoms: _101  and  _103
REMARK   42  A    between atoms: _103  and  _104
REMARK   43  A    between atoms: _103  and  _106
REMARK   44  A    between atoms: _106  and  _107
REMARK   45  A    between atoms: _113  and  _115
REMARK   46  A    between atoms: _115  and  _116
REMARK   47  A    between atoms: _115  and  _118
REMARK   48  A    between atoms: _118  and  _119
REMARK   49  A    between atoms: _124  and  _125
REMARK   50  A    between atoms: _128  and  _129
REMARK   51  A    between atoms: _134  and  _136
REMARK   52  A    between atoms: _136  and  _137
REMARK   53  A    between atoms: _136  and  _139
REMARK   54  A    between atoms: _139  and  _140
REMARK   55  A    between atoms: _145  and  _147
REMARK   56  A    between atoms: _147  and  _148
REMARK   57  A    between atoms: _147  and  _150
REMARK   58  A    between atoms: _150  and  _151
REMARK   59  A    between atoms: _154  and  _156
REMARK   60  A    between atoms: _156  and  _157
REMARK   61  A    between atoms: _156  and  _159
REMARK   62  A    between atoms: _159  and  _160
REMARK   63  A    between atoms: _165  and  _167
REMARK   64  A    between atoms: _167  and  _168
REMARK   65  A    between atoms: _167  and  _170
REMARK   66  A    between atoms: _170  and  _171
REMARK   67  A    between atoms: _177  and  _179
REMARK   68  A    between atoms: _179  and  _180
REMARK   69  A    between atoms: _179  and  _182
REMARK   70  A    between atoms: _182  and  _183
REMARK   71  A    between atoms: _189  and  _191
REMARK   72  A    between atoms: _191  and  _192
REMARK   73  A    between atoms: _191  and  _194
REMARK   74  A    between atoms: _194  and  _195
REMARK   75  A    between atoms: _195  and  _196
REMARK   76  A    between atoms: _199  and  _201
REMARK   77  A    between atoms: _201  and  _202
REMARK   78  A    between atoms: _201  and  _204
REMARK   79  A    between atoms: _204  and  _205
REMARK   80  A    between atoms: _205  and  _206
REMARK   81  A    between atoms: _206  and  _207
REMARK   82  A    between atoms: _216  and  _218
REMARK   83  A    between atoms: _218  and  _219
REMARK   84  A    between atoms: _218  and  _221
REMARK   85  A    between atoms: _221  and  _222
REMARK   86  A    between atoms: _222  and  _223
REMARK   87  A    between atoms: _226  and  _228
REMARK   88  A    between atoms: _228  and  _229
REMARK   89  A    between atoms: _228  and  _231
REMARK   90  A    between atoms: _231  and  _232
REMARK   91  A    between atoms: _237  and  _239
REMARK   92  A    between atoms: _239  and  _240
REMARK   93  A    between atoms: _239  and  _242
REMARK   94  A    between atoms: _242  and  _243
REMARK   95  A    between atoms: _246  and  _248
REMARK   96  A    between atoms: _248  and  _249
REMARK   97  A    between atoms: _248  and  _251
REMARK   98  A    between atoms: _251  and  _252
REMARK   99  A    between atoms: _255  and  _257
REMARK  100  A    between atoms: _257  and  _258
REMARK  101  A    between atoms: _257  and  _260
REMARK  102  A    between atoms: _260  and  _261
REMARK  103  A    between atoms: _266  and  _268
REMARK  104  A    between atoms: _268  and  _269
REMARK  105  A    between atoms: _268  and  _271
REMARK  106  A    between atoms: _271  and  _272
REMARK  107  A    between atoms: _275  and  _277
REMARK  108  A    between atoms: _277  and  _278
REMARK  109  A    between atoms: _277  and  _280
REMARK  110  A    between atoms: _280  and  _281
REMARK  111  A    between atoms: _286  and  _288
REMARK  112  A    between atoms: _288  and  _289
REMARK  113  A    between atoms: _288  and  _291
REMARK  114  A    between atoms: _291  and  _292
REMARK  115  A    between atoms: _297  and  _299
REMARK  116  A    between atoms: _299  and  _300
REMARK  117  A    between atoms: _299  and  _302
REMARK  118  A    between atoms: _302  and  _303
REMARK  119  A    between atoms: _306  and  _308
REMARK  120  A    between atoms: _308  and  _309
REMARK  121  A    between atoms: _308  and  _311
REMARK  122  A    between atoms: _314  and  _316
REMARK  123  A    between atoms: _316  and  _317
REMARK  124  A    between atoms: _316  and  _319
REMARK  125  A    between atoms: _319  and  _320
REMARK  126  A    between atoms: _323  and  _325
REMARK  127  A    between atoms: _325  and  _326
REMARK  128  A    between atoms: _325  and  _328
REMARK  129  A    between atoms: _328  and  _329
REMARK  130  A    between atoms: _329  and  _330
REMARK  131  A    between atoms: _333  and  _335
REMARK  132  A    between atoms: _335  and  _336
REMARK  133  A    between atoms: _339  and  _341
REMARK  134  A    between atoms: _341  and  _342
REMARK  135  A    between atoms: _341  and  _344
REMARK  136  A    between atoms: _344  and  _345
REMARK  137  A    between atoms: _348  and  _350
REMARK  138  A    between atoms: _350  and  _351
REMARK  139  A    between atoms: _350  and  _353
REMARK  140  A    between atoms: _353  and  _354
REMARK  141  A    between atoms: _354  and  _355
REMARK  142  A    between atoms: _358  and  _360
REMARK  143  A    between atoms: _360  and  _361
REMARK  144  A    between atoms: _360  and  _363
REMARK  145  A    between atoms: _363  and  _364
REMARK  146  A    between atoms: _369  and  _371
REMARK  147  A    between atoms: _371  and  _372
REMARK  148  A    between atoms: _374  and  _376
REMARK  149  A    between atoms: _376  and  _377
REMARK  150  A    between atoms: _376  and  _379
REMARK  151  A    between atoms: _382  and  _384
REMARK  152  A    between atoms: _384  and  _385
REMARK  153  A    between atoms: _388  and  _390
REMARK  154  A    between atoms: _390  and  _391
REMARK  155  A    between atoms: _390  and  _393
REMARK  156  A    between atoms: _393  and  _394
REMARK  157  A    between atoms: _399  and  _401
REMARK  158  A    between atoms: _401  and  _402
REMARK  159  A    between atoms: _401  and  _404
REMARK  160  A    between atoms: _404  and  _405
REMARK  161  A    between atoms: _405  and  _406
REMARK  162  A    between atoms: _406  and  _407
REMARK  163  A    between atoms: _407  and  _408
REMARK  164  A    between atoms: _412  and  _414
REMARK  165  A    between atoms: _414  and  _415
REMARK  166  A    between atoms: _414  and  _417
REMARK  167  A    between atoms: _417  and  _418
REMARK  168  A    between atoms: _423  and  _425
REMARK  169  A    between atoms: _425  and  _426
REMARK  170  A    between atoms: _428  and  _430
REMARK  171  A    between atoms: _430  and  _431
REMARK  172  A    between atoms: _430  and  _433
REMARK  173  A    between atoms: _433  and  _434
REMARK  174  A    between atoms: _434  and  _435
REMARK  175  A    between atoms: _435  and  _436
REMARK  176  A    between atoms: _436  and  _437
REMARK  177  A    between atoms: _441  and  _443
REMARK  178  A    between atoms: _443  and  _444
REMARK  179  A    between atoms: _443  and  _446
REMARK  180  A    between atoms: _446  and  _447
REMARK  181  A    between atoms: _447  and  _448
REMARK  182  A    between atoms: _448  and  _449
REMARK  183  A    between atoms: _458  and  _460
REMARK  184  A    between atoms: _460  and  _461
REMARK  185  A    between atoms: _460  and  _463
REMARK  186  A    between atoms: _463  and  _464
REMARK  187  A    between atoms: _469  and  _470
REMARK  188  A    between atoms: _472  and  _474
REMARK  189  A    between atoms: _474  and  _475
REMARK  190  A    between atoms: _474  and  _477
REMARK  191  A    between atoms: _477  and  _478
REMARK  192  A    between atoms: _478  and  _479
REMARK  193  A    between atoms: _479  and  _480
REMARK  194  A    between atoms: _480  and  _481
REMARK  195  A    between atoms: _485  and  _487
REMARK  196  A    between atoms: _487  and  _488
REMARK  197  A    between atoms: _487  and  _490
REMARK  198  A    between atoms: _490  and  _491
REMARK  199  A    between atoms: _494  and  _496
REMARK  200  A    between atoms: _496  and  _497
REMARK  201  A    between atoms: _496  and  _499
REMARK  202  A    between atoms: _499  and  _500
REMARK  203  A    between atoms: _500  and  _501
REMARK  204  A    between atoms: _504  and  _506
REMARK  205  A    between atoms: _506  and  _507
REMARK  206  A    between atoms: _510  and  _512
REMARK  207  A    between atoms: _512  and  _513
REMARK  208  A    between atoms: _512  and  _515
REMARK  209  A    between atoms: _515  and  _516
REMARK  210  A    between atoms: _518  and  _520
REMARK  211  A    between atoms: _520  and  _521
REMARK  212  A    between atoms: _523  and  _525
REMARK  213  A    between atoms: _525  and  _526
REMARK  214  A    between atoms: _525  and  _528
REMARK  215  A    between atoms: _528  and  _529
REMARK  216  A    between atoms: _532  and  _534
REMARK  217  A    between atoms: _534  and  _535
REMARK  218  A    between atoms: _537  and  _539
REMARK  219  A    between atoms: _539  and  _540
REMARK  220  A    between atoms: _539  and  _542
REMARK  221  A    between atoms: _542  and  _543
REMARK  222  A    between atoms: _548  and  _550
REMARK  223  A    between atoms: _550  and  _551
REMARK  224  A    between atoms: _550  and  _553
REMARK  225  A    between atoms: _553  and  _554
REMARK  226  A    between atoms: _554  and  _555
REMARK  227  A    between atoms: _562  and  _563
REMARK  228  A    between atoms: _563  and  _579
REMARK  229  A    between atoms: _564  and  _566
REMARK  230  A    between atoms: _566  and  _567
REMARK  231  A    between atoms: _567  and  _568
REMARK  232  A    between atoms: _572  and  _574
REMARK  233  A    between atoms: _574  and  _575
REMARK  234  A    between atoms: _574  and  _582
REMARK  235  A    between atoms: _575  and  _576
REMARK  236  A    between atoms: _576  and  _577
REMARK  237  A    between atoms: _577  and  _578
REMARK  238  A    between atoms: _578  and  _579
REMARK  239  A    between atoms: _584  and  _586
REMARK  240  A    between atoms: _586  and  _587
REMARK  241  A    between atoms: _586  and  _589
REMARK  242  A    between atoms: _589  and  _590
REMARK  243  A    between atoms: _593  and  _595
REMARK  244  A    between atoms: _595  and  _596
REMARK  245  A    between atoms: _598  and  _600
REMARK  246  A    between atoms: _600  and  _601
REMARK  247  A    between atoms: _604  and  _606
REMARK  248  A    between atoms: _606  and  _607
REMARK  249  A    between atoms: _606  and  _609
REMARK  250  A    between atoms: _609  and  _610
REMARK  251  A    between atoms: _615  and  _616
REMARK                            x       y       z     vdW  Elec       q    Type
REMARK                         _______ _______ _______ _____ _____    ______ ____
ROOT
ATOM      1  O   HOH     1      28.304  27.561  27.854  0.00  0.00    +0.000 OA
ENDROOT
TORSDOF 0
REMARK  Name = ../refined-set-2016/3l7d/3l7d_pocket.pdb
REMARK  251 active torsions:
REMARK  status: ('A' for Active; 'I' for Inactive)
REMARK    1  A    between atoms: _1  and  _3
REMARK    2  A    between atoms: _3  and  _4
REMARK    3  A    between atoms: _3  and  _6
REMARK    4  A    between atoms: _6  and  _7
REMARK    5  A    between atoms: _12  and  _13
REMARK    6  A    between atoms: _15  and  _17
REMARK    7  A    between atoms: _17  and  _18
REMARK    8  A    between atoms: _17  and  _20
REMARK    9  A    between atoms: _20  and  _21
REMARK   10  A    between atoms: _24  and  _26
REMARK   11  A    between atoms: _26  and  _27
REMARK   12  A    between atoms: _26  and  _29
REMARK   13  A    between atoms: _29  and  _30
REMARK   14  A    between atoms: _30  and  _31
REMARK   15  A    between atoms: _34  and  _36
REMARK   16  A    between atoms: _36  and  _37
REMARK   17  A    between atoms: _36  and  _39
REMARK   18  A    between atoms: _39  and  _40
REMARK   19  A    between atoms: _45  and  _47
REMARK   20  A    between atoms: _47  and  _48
REMARK   21  A    between atoms: _50  and  _52
REMARK   22  A    between atoms: _52  and  _53
REMARK   23  A    between atoms: _55  and  _57
REMARK   24  A    between atoms: _57  and  _58
REMARK   25  A    between atoms: _57  and  _60
REMARK   26  A    between atoms: _60  and  _61
REMARK   27  A    between atoms: _64  and  _66
REMARK   28  A    between atoms: _66  and  _67
REMARK   29  A    between atoms: _69  and  _71
REMARK   30  A    between atoms: _71  and  _72
REMARK   31  A    between atoms: _71  and  _74
REMARK   32  A    between atoms: _74  and  _75
REMARK   33  A    between atoms: _75  and  _76
REMARK   34  A    between atoms: _76  and  _77
REMARK   35  A    between atoms: _86  and  _88
REMARK   36  A    between atoms: _88  and  _89
REMARK   37  A    between atoms: _88  and  _91
REMARK   38  A    between atoms: _91  and  _92
REMARK   39  A    between atoms: _95  and  _97
REMARK   40  A    between atoms: _97  and  _98
REMARK   41  A    between atoms: _101  and  _103
REMARK   42  A    between atoms: _103  and  _104
REMARK   43  A    between atoms: _103  and  _106
REMARK   44  A    between atoms: _106  and  _107
REMARK   45  A    between atoms: _113  and  _115
REMARK   46  A    between atoms: _115  and  _116
REMARK   47  A    between atoms: _115  and  _118
REMARK   48  A    between atoms: _118  and  _119
REMARK   49  A    between atoms: _124  and  _125
REMARK   50  A    between atoms: _128  and  _129
REMARK   51  A    between atoms: _134  and  _136
REMARK   52  A    between atoms: _136  and  _137
REMARK   53  A    between atoms: _136  and  _139
REMARK   54  A    between atoms: _139  and  _140
REMARK   55  A    between atoms: _145  and  _147
REMARK   56  A    between atoms: _147  and  _148
REMARK   57  A    between atoms: _147  and  _150
REMARK   58  A    between atoms: _150  and  _151
REMARK   59  A    between atoms: _154  and  _156
REMARK   60  A    between atoms: _156  and  _157
REMARK   61  A    between atoms: _156  and  _159
REMARK   62  A    between atoms: _159  and  _160
REMARK   63  A    between atoms: _165  and  _167
REMARK   64  A    between atoms: _167  and  _168
REMARK   65  A    between atoms: _167  and  _170
REMARK   66  A    between atoms: _170  and  _171
REMARK   67  A    between atoms: _177  and  _179
REMARK   68  A    between atoms: _179  and  _180
REMARK   69  A    between atoms: _179  and  _182
REMARK   70  A    between atoms: _182  and  _183
REMARK   71  A    between atoms: _189  and  _191
REMARK   72  A    between atoms: _191  and  _192
REMARK   73  A    between atoms: _191  and  _194
REMARK   74  A    between atoms: _194  and  _195
REMARK   75  A    between atoms: _195  and  _196
REMARK   76  A    between atoms: _199  and  _201
REMARK   77  A    between atoms: _201  and  _202
REMARK   78  A    between atoms: _201  and  _204
REMARK   79  A    between atoms: _204  and  _205
REMARK   80  A    between atoms: _205  and  _206
REMARK   81  A    between atoms: _206  and  _207
REMARK   82  A    between atoms: _216  and  _218
REMARK   83  A    between atoms: _218  and  _219
REMARK   84  A    between atoms: _218  and  _221
REMARK   85  A    between atoms: _221  and  _222
REMARK   86  A    between atoms: _222  and  _223
REMARK   87  A    between atoms: _226  and  _228
REMARK   88  A    between atoms: _228  and  _229
REMARK   89  A    between atoms: _228  and  _231
REMARK   90  A    between atoms: _231  and  _232
REMARK   91  A    between atoms: _237  and  _239
REMARK   92  A    between atoms: _239  and  _240
REMARK   93  A    between atoms: _239  and  _242
REMARK   94  A    between atoms: _242  and  _243
REMARK   95  A    between atoms: _246  and  _248
REMARK   96  A    between atoms: _248  and  _249
REMARK   97  A    between atoms: _248  and  _251
REMARK   98  A    between atoms: _251  and  _252
REMARK   99  A    between atoms: _255  and  _257
REMARK  100  A    between atoms: _257  and  _258
REMARK  101  A    between atoms: _257  and  _260
REMARK  102  A    between atoms: _260  and  _261
REMARK  103  A    between atoms: _266  and  _268
REMARK  104  A    between atoms: _268  and  _269
REMARK  105  A    between atoms: _268  and  _271
REMARK  106  A    between atoms: _271  and  _272
REMARK  107  A    between atoms: _275  and  _277
REMARK  108  A    between atoms: _277  and  _278
REMARK  109  A    between atoms: _277  and  _280
REMARK  110  A    between atoms: _280  and  _281
REMARK  111  A    between atoms: _286  and  _288
REMARK  112  A    between atoms: _288  and  _289
REMARK  113  A    between atoms: _288  and  _291
REMARK  114  A    between atoms: _291  and  _292
REMARK  115  A    between atoms: _297  and  _299
REMARK  116  A    between atoms: _299  and  _300
REMARK  117  A    between atoms: _299  and  _302
REMARK  118  A    between atoms: _302  and  _303
REMARK  119  A    between atoms: _306  and  _308
REMARK  120  A    between atoms: _308  and  _309
REMARK  121  A    between atoms: _308  and  _311
REMARK  122  A    between atoms: _314  and  _316
REMARK  123  A    between atoms: _316  and  _317
REMARK  124  A    between atoms: _316  and  _319
REMARK  125  A    between atoms: _319  and  _320
REMARK  126  A    between atoms: _323  and  _325
REMARK  127  A    between atoms: _325  and  _326
REMARK  128  A    between atoms: _325  and  _328
REMARK  129  A    between atoms: _328  and  _329
REMARK  130  A    between atoms: _329  and  _330
REMARK  131  A    between atoms: _333  and  _335
REMARK  132  A    between atoms: _335  and  _336
REMARK  133  A    between atoms: _339  and  _341
REMARK  134  A    between atoms: _341  and  _342
REMARK  135  A    between atoms: _341  and  _344
REMARK  136  A    between atoms: _344  and  _345
REMARK  137  A    between atoms: _348  and  _350
REMARK  138  A    between atoms: _350  and  _351
REMARK  139  A    between atoms: _350  and  _353
REMARK  140  A    between atoms: _353  and  _354
REMARK  141  A    between atoms: _354  and  _355
REMARK  142  A    between atoms: _358  and  _360
REMARK  143  A    between atoms: _360  and  _361
REMARK  144  A    between atoms: _360  and  _363
REMARK  145  A    between atoms: _363  and  _364
REMARK  146  A    between atoms: _369  and  _371
REMARK  147  A    between atoms: _371  and  _372
REMARK  148  A    between atoms: _374  and  _376
REMARK  149  A    between atoms: _376  and  _377
REMARK  150  A    between atoms: _376  and  _379
REMARK  151  A    between atoms: _382  and  _384
REMARK  152  A    between atoms: _384  and  _385
REMARK  153  A    between atoms: _388  and  _390
REMARK  154  A    between atoms: _390  and  _391
REMARK  155  A    between atoms: _390  and  _393
REMARK  156  A    between atoms: _393  and  _394
REMARK  157  A    between atoms: _399  and  _401
REMARK  158  A    between atoms: _401  and  _402
REMARK  159  A    between atoms: _401  and  _404
REMARK  160  A    between atoms: _404  and  _405
REMARK  161  A    between atoms: _405  and  _406
REMARK  162  A    between atoms: _406  and  _407
REMARK  163  A    between atoms: _407  and  _408
REMARK  164  A    between atoms: _412  and  _414
REMARK  165  A    between atoms: _414  and  _415
REMARK  166  A    between atoms: _414  and  _417
REMARK  167  A    between atoms: _417  and  _418
REMARK  168  A    between atoms: _423  and  _425
REMARK  169  A    between atoms: _425  and  _426
REMARK  170  A    between atoms: _428  and  _430
REMARK  171  A    between atoms: _430  and  _431
REMARK  172  A    between atoms: _430  and  _433
REMARK  173  A    between atoms: _433  and  _434
REMARK  174  A    between atoms: _434  and  _435
REMARK  175  A    between atoms: _435  and  _436
REMARK  176  A    between atoms: _436  and  _437
REMARK  177  A    between atoms: _441  and  _443
REMARK  178  A    between atoms: _443  and  _444
REMARK  179  A    between atoms: _443  and  _446
REMARK  180  A    between atoms: _446  and  _447
REMARK  181  A    between atoms: _447  and  _448
REMARK  182  A    between atoms: _448  and  _449
REMARK  183  A    between atoms: _458  and  _460
REMARK  184  A    between atoms: _460  and  _461
REMARK  185  A    between atoms: _460  and  _463
REMARK  186  A    between atoms: _463  and  _464
REMARK  187  A    between atoms: _469  and  _470
REMARK  188  A    between atoms: _472  and  _474
REMARK  189  A    between atoms: _474  and  _475
REMARK  190  A    between atoms: _474  and  _477
REMARK  191  A    between atoms: _477  and  _478
REMARK  192  A    between atoms: _478  and  _479
REMARK  193  A    between atoms: _479  and  _480
REMARK  194  A    between atoms: _480  and  _481
REMARK  195  A    between atoms: _485  and  _487
REMARK  196  A    between atoms: _487  and  _488
REMARK  197  A    between atoms: _487  and  _490
REMARK  198  A    between atoms: _490  and  _491
REMARK  199  A    between atoms: _494  and  _496
REMARK  200  A    between atoms: _496  and  _497
REMARK  201  A    between atoms: _496  and  _499
REMARK  202  A    between atoms: _499  and  _500
REMARK  203  A    between atoms: _500  and  _501
REMARK  204  A    between atoms: _504  and  _506
REMARK  205  A    between atoms: _506  and  _507
REMARK  206  A    between atoms: _510  and  _512
REMARK  207  A    between atoms: _512  and  _513
REMARK  208  A    between atoms: _512  and  _515
REMARK  209  A    between atoms: _515  and  _516
REMARK  210  A    between atoms: _518  and  _520
REMARK  211  A    between atoms: _520  and  _521
REMARK  212  A    between atoms: _523  and  _525
REMARK  213  A    between atoms: _525  and  _526
REMARK  214  A    between atoms: _525  and  _528
REMARK  215  A    between atoms: _528  and  _529
REMARK  216  A    between atoms: _532  and  _534
REMARK  217  A    between atoms: _534  and  _535
REMARK  218  A    between atoms: _537  and  _539
REMARK  219  A    between atoms: _539  and  _540
REMARK  220  A    between atoms: _539  and  _542
REMARK  221  A    between atoms: _542  and  _543
REMARK  222  A    between atoms: _548  and  _550
REMARK  223  A    between atoms: _550  and  _551
REMARK  224  A    between atoms: _550  and  _553
REMARK  225  A    between atoms: _553  and  _554
REMARK  226  A    between atoms: _554  and  _555
REMARK  227  A    between atoms: _562  and  _563
REMARK  228  A    between atoms: _563  and  _579
REMARK  229  A    between atoms: _564  and  _566
REMARK  230  A    between atoms: _566  and  _567
REMARK  231  A    between atoms: _567  and  _568
REMARK  232  A    between atoms: _572  and  _574
REMARK  233  A    between atoms: _574  and  _575
REMARK  234  A    between atoms: _574  and  _582
REMARK  235  A    between atoms: _575  and  _576
REMARK  236  A    between atoms: _576  and  _577
REMARK  237  A    between atoms: _577  and  _578
REMARK  238  A    between atoms: _578  and  _579
REMARK  239  A    between atoms: _584  and  _586
REMARK  240  A    between atoms: _586  and  _587
REMARK  241  A    between atoms: _586  and  _589
REMARK  242  A    between atoms: _589  and  _590
REMARK  243  A    between atoms: _593  and  _595
REMARK  244  A    between atoms: _595  and  _596
REMARK  245  A    between atoms: _598  and  _600
REMARK  246  A    between atoms: _600  and  _601
REMARK  247  A    between atoms: _604  and  _606
REMARK  248  A    between atoms: _606  and  _607
REMARK  249  A    between atoms: _606  and  _609
REMARK  250  A    between atoms: _609  and  _610
REMARK  251  A    between atoms: _615  and  _616
REMARK                            x       y       z     vdW  Elec       q    Type
REMARK                         _______ _______ _______ _____ _____    ______ ____
ROOT
ATOM      1  O   HOH     1      47.181  29.729  31.420  0.00  0.00    +0.000 OA
ENDROOT
TORSDOF 0
REMARK  Name = ../refined-set-2016/3l7d/3l7d_pocket.pdb
REMARK  251 active torsions:
REMARK  status: ('A' for Active; 'I' for Inactive)
REMARK    1  A    between atoms: _1  and  _3
REMARK    2  A    between atoms: _3  and  _4
REMARK    3  A    between atoms: _3  and  _6
REMARK    4  A    between atoms: _6  and  _7
REMARK    5  A    between atoms: _12  and  _13
REMARK    6  A    between atoms: _15  and  _17
REMARK    7  A    between atoms: _17  and  _18
REMARK    8  A    between atoms: _17  and  _20
REMARK    9  A    between atoms: _20  and  _21
REMARK   10  A    between atoms: _24  and  _26
REMARK   11  A    between atoms: _26  and  _27
REMARK   12  A    between atoms: _26  and  _29
REMARK   13  A    between atoms: _29  and  _30
REMARK   14  A    between atoms: _30  and  _31
REMARK   15  A    between atoms: _34  and  _36
REMARK   16  A    between atoms: _36  and  _37
REMARK   17  A    between atoms: _36  and  _39
REMARK   18  A    between atoms: _39  and  _40
REMARK   19  A    between atoms: _45  and  _47
REMARK   20  A    between atoms: _47  and  _48
REMARK   21  A    between atoms: _50  and  _52
REMARK   22  A    between atoms: _52  and  _53
REMARK   23  A    between atoms: _55  and  _57
REMARK   24  A    between atoms: _57  and  _58
REMARK   25  A    between atoms: _57  and  _60
REMARK   26  A    between atoms: _60  and  _61
REMARK   27  A    between atoms: _64  and  _66
REMARK   28  A    between atoms: _66  and  _67
REMARK   29  A    between atoms: _69  and  _71
REMARK   30  A    between atoms: _71  and  _72
REMARK   31  A    between atoms: _71  and  _74
REMARK   32  A    between atoms: _74  and  _75
REMARK   33  A    between atoms: _75  and  _76
REMARK   34  A    between atoms: _76  and  _77
REMARK   35  A    between atoms: _86  and  _88
REMARK   36  A    between atoms: _88  and  _89
REMARK   37  A    between atoms: _88  and  _91
REMARK   38  A    between atoms: _91  and  _92
REMARK   39  A    between atoms: _95  and  _97
REMARK   40  A    between atoms: _97  and  _98
REMARK   41  A    between atoms: _101  and  _103
REMARK   42  A    between atoms: _103  and  _104
REMARK   43  A    between atoms: _103  and  _106
REMARK   44  A    between atoms: _106  and  _107
REMARK   45  A    between atoms: _113  and  _115
REMARK   46  A    between atoms: _115  and  _116
REMARK   47  A    between atoms: _115  and  _118
REMARK   48  A    between atoms: _118  and  _119
REMARK   49  A    between atoms: _124  and  _125
REMARK   50  A    between atoms: _128  and  _129
REMARK   51  A    between atoms: _134  and  _136
REMARK   52  A    between atoms: _136  and  _137
REMARK   53  A    between atoms: _136  and  _139
REMARK   54  A    between atoms: _139  and  _140
REMARK   55  A    between atoms: _145  and  _147
REMARK   56  A    between atoms: _147  and  _148
REMARK   57  A    between atoms: _147  and  _150
REMARK   58  A    between atoms: _150  and  _151
REMARK   59  A    between atoms: _154  and  _156
REMARK   60  A    between atoms: _156  and  _157
REMARK   61  A    between atoms: _156  and  _159
REMARK   62  A    between atoms: _159  and  _160
REMARK   63  A    between atoms: _165  and  _167
REMARK   64  A    between atoms: _167  and  _168
REMARK   65  A    between atoms: _167  and  _170
REMARK   66  A    between atoms: _170  and  _171
REMARK   67  A    between atoms: _177  and  _179
REMARK   68  A    between atoms: _179  and  _180
REMARK   69  A    between atoms: _179  and  _182
REMARK   70  A    between atoms: _182  and  _183
REMARK   71  A    between atoms: _189  and  _191
REMARK   72  A    between atoms: _191  and  _192
REMARK   73  A    between atoms: _191  and  _194
REMARK   74  A    between atoms: _194  and  _195
REMARK   75  A    between atoms: _195  and  _196
REMARK   76  A    between atoms: _199  and  _201
REMARK   77  A    between atoms: _201  and  _202
REMARK   78  A    between atoms: _201  and  _204
REMARK   79  A    between atoms: _204  and  _205
REMARK   80  A    between atoms: _205  and  _206
REMARK   81  A    between atoms: _206  and  _207
REMARK   82  A    between atoms: _216  and  _218
REMARK   83  A    between atoms: _218  and  _219
REMARK   84  A    between atoms: _218  and  _221
REMARK   85  A    between atoms: _221  and  _222
REMARK   86  A    between atoms: _222  and  _223
REMARK   87  A    between atoms: _226  and  _228
REMARK   88  A    between atoms: _228  and  _229
REMARK   89  A    between atoms: _228  and  _231
REMARK   90  A    between atoms: _231  and  _232
REMARK   91  A    between atoms: _237  and  _239
REMARK   92  A    between atoms: _239  and  _240
REMARK   93  A    between atoms: _239  and  _242
REMARK   94  A    between atoms: _242  and  _243
REMARK   95  A    between atoms: _246  and  _248
REMARK   96  A    between atoms: _248  and  _249
REMARK   97  A    between atoms: _248  and  _251
REMARK   98  A    between atoms: _251  and  _252
REMARK   99  A    between atoms: _255  and  _257
REMARK  100  A    between atoms: _257  and  _258
REMARK  101  A    between atoms: _257  and  _260
REMARK  102  A    between atoms: _260  and  _261
REMARK  103  A    between atoms: _266  and  _268
REMARK  104  A    between atoms: _268  and  _269
REMARK  105  A    between atoms: _268  and  _271
REMARK  106  A    between atoms: _271  and  _272
REMARK  107  A    between atoms: _275  and  _277
REMARK  108  A    between atoms: _277  and  _278
REMARK  109  A    between atoms: _277  and  _280
REMARK  110  A    between atoms: _280  and  _281
REMARK  111  A    between atoms: _286  and  _288
REMARK  112  A    between atoms: _288  and  _289
REMARK  113  A    between atoms: _288  and  _291
REMARK  114  A    between atoms: _291  and  _292
REMARK  115  A    between atoms: _297  and  _299
REMARK  116  A    between atoms: _299  and  _300
REMARK  117  A    between atoms: _299  and  _302
REMARK  118  A    between atoms: _302  and  _303
REMARK  119  A    between atoms: _306  and  _308
REMARK  120  A    between atoms: _308  and  _309
REMARK  121  A    between atoms: _308  and  _311
REMARK  122  A    between atoms: _314  and  _316
REMARK  123  A    between atoms: _316  and  _317
REMARK  124  A    between atoms: _316  and  _319
REMARK  125  A    between atoms: _319  and  _320
REMARK  126  A    between atoms: _323  and  _325
REMARK  127  A    between atoms: _325  and  _326
REMARK  128  A    between atoms: _325  and  _328
REMARK  129  A    between atoms: _328  and  _329
REMARK  130  A    between atoms: _329  and  _330
REMARK  131  A    between atoms: _333  and  _335
REMARK  132  A    between atoms: _335  and  _336
REMARK  133  A    between atoms: _339  and  _341
REMARK  134  A    between atoms: _341  and  _342
REMARK  135  A    between atoms: _341  and  _344
REMARK  136  A    between atoms: _344  and  _345
REMARK  137  A    between atoms: _348  and  _350
REMARK  138  A    between atoms: _350  and  _351
REMARK  139  A    between atoms: _350  and  _353
REMARK  140  A    between atoms: _353  and  _354
REMARK  141  A    between atoms: _354  and  _355
REMARK  142  A    between atoms: _358  and  _360
REMARK  143  A    between atoms: _360  and  _361
REMARK  144  A    between atoms: _360  and  _363
REMARK  145  A    between atoms: _363  and  _364
REMARK  146  A    between atoms: _369  and  _371
REMARK  147  A    between atoms: _371  and  _372
REMARK  148  A    between atoms: _374  and  _376
REMARK  149  A    between atoms: _376  and  _377
REMARK  150  A    between atoms: _376  and  _379
REMARK  151  A    between atoms: _382  and  _384
REMARK  152  A    between atoms: _384  and  _385
REMARK  153  A    between atoms: _388  and  _390
REMARK  154  A    between atoms: _390  and  _391
REMARK  155  A    between atoms: _390  and  _393
REMARK  156  A    between atoms: _393  and  _394
REMARK  157  A    between atoms: _399  and  _401
REMARK  158  A    between atoms: _401  and  _402
REMARK  159  A    between atoms: _401  and  _404
REMARK  160  A    between atoms: _404  and  _405
REMARK  161  A    between atoms: _405  and  _406
REMARK  162  A    between atoms: _406  and  _407
REMARK  163  A    between atoms: _407  and  _408
REMARK  164  A    between atoms: _412  and  _414
REMARK  165  A    between atoms: _414  and  _415
REMARK  166  A    between atoms: _414  and  _417
REMARK  167  A    between atoms: _417  and  _418
REMARK  168  A    between atoms: _423  and  _425
REMARK  169  A    between atoms: _425  and  _426
REMARK  170  A    between atoms: _428  and  _430
REMARK  171  A    between atoms: _430  and  _431
REMARK  172  A    between atoms: _430  and  _433
REMARK  173  A    between atoms: _433  and  _434
REMARK  174  A    between atoms: _434  and  _435
REMARK  175  A    between atoms: _435  and  _436
REMARK  176  A    between atoms: _436  and  _437
REMARK  177  A    between atoms: _441  and  _443
REMARK  178  A    between atoms: _443  and  _444
REMARK  179  A    between atoms: _443  and  _446
REMARK  180  A    between atoms: _446  and  _447
REMARK  181  A    between atoms: _447  and  _448
REMARK  182  A    between atoms: _448  and  _449
REMARK  183  A    between atoms: _458  and  _460
REMARK  184  A    between atoms: _460  and  _461
REMARK  185  A    between atoms: _460  and  _463
REMARK  186  A    between atoms: _463  and  _464
REMARK  187  A    between atoms: _469  and  _470
REMARK  188  A    between atoms: _472  and  _474
REMARK  189  A    between atoms: _474  and  _475
REMARK  190  A    between atoms: _474  and  _477
REMARK  191  A    between atoms: _477  and  _478
REMARK  192  A    between atoms: _478  and  _479
REMARK  193  A    between atoms: _479  and  _480
REMARK  194  A    between atoms: _480  and  _481
REMARK  195  A    between atoms: _485  and  _487
REMARK  196  A    between atoms: _487  and  _488
REMARK  197  A    between atoms: _487  and  _490
REMARK  198  A    between atoms: _490  and  _491
REMARK  199  A    between atoms: _494  and  _496
REMARK  200  A    between atoms: _496  and  _497
REMARK  201  A    between atoms: _496  and  _499
REMARK  202  A    between atoms: _499  and  _500
REMARK  203  A    between atoms: _500  and  _501
REMARK  204  A    between atoms: _504  and  _506
REMARK  205  A    between atoms: _506  and  _507
REMARK  206  A    between atoms: _510  and  _512
REMARK  207  A    between atoms: _512  and  _513
REMARK  208  A    between atoms: _512  and  _515
REMARK  209  A    between atoms: _515  and  _516
REMARK  210  A    between atoms: _518  and  _520
REMARK  211  A    between atoms: _520  and  _521
REMARK  212  A    between atoms: _523  and  _525
REMARK  213  A    between atoms: _525  and  _526
REMARK  214  A    between atoms: _525  and  _528
REMARK  215  A    between atoms: _528  and  _529
REMARK  216  A    between atoms: _532  and  _534
REMARK  217  A    between atoms: _534  and  _535
REMARK  218  A    between atoms: _537  and  _539
REMARK  219  A    between atoms: _539  and  _540
REMARK  220  A    between atoms: _539  and  _542
REMARK  221  A    between atoms: _542  and  _543
REMARK  222  A    between atoms: _548  and  _550
REMARK  223  A    between atoms: _550  and  _551
REMARK  224  A    between atoms: _550  and  _553
REMARK  225  A    between atoms: _553  and  _554
REMARK  226  A    between atoms: _554  and  _555
REMARK  227  A    between atoms: _562  and  _563
REMARK  228  A    between atoms: _563  and  _579
REMARK  229  A    between atoms: _564  and  _566
REMARK  230  A    between atoms: _566  and  _567
REMARK  231  A    between atoms: _567  and  _568
REMARK  232  A    between atoms: _572  and  _574
REMARK  233  A    between atoms: _574  and  _575
REMARK  234  A    between atoms: _574  and  _582
REMARK  235  A    between atoms: _575  and  _576
REMARK  236  A    between atoms: _576  and  _577
REMARK  237  A    between atoms: _577  and  _578
REMARK  238  A    between atoms: _578  and  _579
REMARK  239  A    between atoms: _584  and  _586
REMARK  240  A    between atoms: _586  and  _587
REMARK  241  A    between atoms: _586  and  _589
REMARK  242  A    between atoms: _589  and  _590
REMARK  243  A    between atoms: _593  and  _595
REMARK  244  A    between atoms: _595  and  _596
REMARK  245  A    between atoms: _598  and  _600
REMARK  246  A    between atoms: _600  and  _601
REMARK  247  A    between atoms: _604  and  _606
REMARK  248  A    between atoms: _606  and  _607
REMARK  249  A    between atoms: _606  and  _609
REMARK  250  A    between atoms: _609  and  _610
REMARK  251  A    between atoms: _615  and  _616
REMARK                            x       y       z     vdW  Elec       q    Type
REMARK                         _______ _______ _______ _____ _____    ______ ____
ROOT
ATOM      1  O   HOH     1      27.114  23.499  21.842  0.00  0.00    +0.000 OA
ENDROOT
TORSDOF 0
REMARK  Name = ../refined-set-2016/3l7d/3l7d_pocket.pdb
REMARK  251 active torsions:
REMARK  status: ('A' for Active; 'I' for Inactive)
REMARK    1  A    between atoms: _1  and  _3
REMARK    2  A    between atoms: _3  and  _4
REMARK    3  A    between atoms: _3  and  _6
REMARK    4  A    between atoms: _6  and  _7
REMARK    5  A    between atoms: _12  and  _13
REMARK    6  A    between atoms: _15  and  _17
REMARK    7  A    between atoms: _17  and  _18
REMARK    8  A    between atoms: _17  and  _20
REMARK    9  A    between atoms: _20  and  _21
REMARK   10  A    between atoms: _24  and  _26
REMARK   11  A    between atoms: _26  and  _27
REMARK   12  A    between atoms: _26  and  _29
REMARK   13  A    between atoms: _29  and  _30
REMARK   14  A    between atoms: _30  and  _31
REMARK   15  A    between atoms: _34  and  _36
REMARK   16  A    between atoms: _36  and  _37
REMARK   17  A    between atoms: _36  and  _39
REMARK   18  A    between atoms: _39  and  _40
REMARK   19  A    between atoms: _45  and  _47
REMARK   20  A    between atoms: _47  and  _48
REMARK   21  A    between atoms: _50  and  _52
REMARK   22  A    between atoms: _52  and  _53
REMARK   23  A    between atoms: _55  and  _57
REMARK   24  A    between atoms: _57  and  _58
REMARK   25  A    between atoms: _57  and  _60
REMARK   26  A    between atoms: _60  and  _61
REMARK   27  A    between atoms: _64  and  _66
REMARK   28  A    between atoms: _66  and  _67
REMARK   29  A    between atoms: _69  and  _71
REMARK   30  A    between atoms: _71  and  _72
REMARK   31  A    between atoms: _71  and  _74
REMARK   32  A    between atoms: _74  and  _75
REMARK   33  A    between atoms: _75  and  _76
REMARK   34  A    between atoms: _76  and  _77
REMARK   35  A    between atoms: _86  and  _88
REMARK   36  A    between atoms: _88  and  _89
REMARK   37  A    between atoms: _88  and  _91
REMARK   38  A    between atoms: _91  and  _92
REMARK   39  A    between atoms: _95  and  _97
REMARK   40  A    between atoms: _97  and  _98
REMARK   41  A    between atoms: _101  and  _103
REMARK   42  A    between atoms: _103  and  _104
REMARK   43  A    between atoms: _103  and  _106
REMARK   44  A    between atoms: _106  and  _107
REMARK   45  A    between atoms: _113  and  _115
REMARK   46  A    between atoms: _115  and  _116
REMARK   47  A    between atoms: _115  and  _118
REMARK   48  A    between atoms: _118  and  _119
REMARK   49  A    between atoms: _124  and  _125
REMARK   50  A    between atoms: _128  and  _129
REMARK   51  A    between atoms: _134  and  _136
REMARK   52  A    between atoms: _136  and  _137
REMARK   53  A    between atoms: _136  and  _139
REMARK   54  A    between atoms: _139  and  _140
REMARK   55  A    between atoms: _145  and  _147
REMARK   56  A    between atoms: _147  and  _148
REMARK   57  A    between atoms: _147  and  _150
REMARK   58  A    between atoms: _150  and  _151
REMARK   59  A    between atoms: _154  and  _156
REMARK   60  A    between atoms: _156  and  _157
REMARK   61  A    between atoms: _156  and  _159
REMARK   62  A    between atoms: _159  and  _160
REMARK   63  A    between atoms: _165  and  _167
REMARK   64  A    between atoms: _167  and  _168
REMARK   65  A    between atoms: _167  and  _170
REMARK   66  A    between atoms: _170  and  _171
REMARK   67  A    between atoms: _177  and  _179
REMARK   68  A    between atoms: _179  and  _180
REMARK   69  A    between atoms: _179  and  _182
REMARK   70  A    between atoms: _182  and  _183
REMARK   71  A    between atoms: _189  and  _191
REMARK   72  A    between atoms: _191  and  _192
REMARK   73  A    between atoms: _191  and  _194
REMARK   74  A    between atoms: _194  and  _195
REMARK   75  A    between atoms: _195  and  _196
REMARK   76  A    between atoms: _199  and  _201
REMARK   77  A    between atoms: _201  and  _202
REMARK   78  A    between atoms: _201  and  _204
REMARK   79  A    between atoms: _204  and  _205
REMARK   80  A    between atoms: _205  and  _206
REMARK   81  A    between atoms: _206  and  _207
REMARK   82  A    between atoms: _216  and  _218
REMARK   83  A    between atoms: _218  and  _219
REMARK   84  A    between atoms: _218  and  _221
REMARK   85  A    between atoms: _221  and  _222
REMARK   86  A    between atoms: _222  and  _223
REMARK   87  A    between atoms: _226  and  _228
REMARK   88  A    between atoms: _228  and  _229
REMARK   89  A    between atoms: _228  and  _231
REMARK   90  A    between atoms: _231  and  _232
REMARK   91  A    between atoms: _237  and  _239
REMARK   92  A    between atoms: _239  and  _240
REMARK   93  A    between atoms: _239  and  _242
REMARK   94  A    between atoms: _242  and  _243
REMARK   95  A    between atoms: _246  and  _248
REMARK   96  A    between atoms: _248  and  _249
REMARK   97  A    between atoms: _248  and  _251
REMARK   98  A    between atoms: _251  and  _252
REMARK   99  A    between atoms: _255  and  _257
REMARK  100  A    between atoms: _257  and  _258
REMARK  101  A    between atoms: _257  and  _260
REMARK  102  A    between atoms: _260  and  _261
REMARK  103  A    between atoms: _266  and  _268
REMARK  104  A    between atoms: _268  and  _269
REMARK  105  A    between atoms: _268  and  _271
REMARK  106  A    between atoms: _271  and  _272
REMARK  107  A    between atoms: _275  and  _277
REMARK  108  A    between atoms: _277  and  _278
REMARK  109  A    between atoms: _277  and  _280
REMARK  110  A    between atoms: _280  and  _281
REMARK  111  A    between atoms: _286  and  _288
REMARK  112  A    between atoms: _288  and  _289
REMARK  113  A    between atoms: _288  and  _291
REMARK  114  A    between atoms: _291  and  _292
REMARK  115  A    between atoms: _297  and  _299
REMARK  116  A    between atoms: _299  and  _300
REMARK  117  A    between atoms: _299  and  _302
REMARK  118  A    between atoms: _302  and  _303
REMARK  119  A    between atoms: _306  and  _308
REMARK  120  A    between atoms: _308  and  _309
REMARK  121  A    between atoms: _308  and  _311
REMARK  122  A    between atoms: _314  and  _316
REMARK  123  A    between atoms: _316  and  _317
REMARK  124  A    between atoms: _316  and  _319
REMARK  125  A    between atoms: _319  and  _320
REMARK  126  A    between atoms: _323  and  _325
REMARK  127  A    between atoms: _325  and  _326
REMARK  128  A    between atoms: _325  and  _328
REMARK  129  A    between atoms: _328  and  _329
REMARK  130  A    between atoms: _329  and  _330
REMARK  131  A    between atoms: _333  and  _335
REMARK  132  A    between atoms: _335  and  _336
REMARK  133  A    between atoms: _339  and  _341
REMARK  134  A    between atoms: _341  and  _342
REMARK  135  A    between atoms: _341  and  _344
REMARK  136  A    between atoms: _344  and  _345
REMARK  137  A    between atoms: _348  and  _350
REMARK  138  A    between atoms: _350  and  _351
REMARK  139  A    between atoms: _350  and  _353
REMARK  140  A    between atoms: _353  and  _354
REMARK  141  A    between atoms: _354  and  _355
REMARK  142  A    between atoms: _358  and  _360
REMARK  143  A    between atoms: _360  and  _361
REMARK  144  A    between atoms: _360  and  _363
REMARK  145  A    between atoms: _363  and  _364
REMARK  146  A    between atoms: _369  and  _371
REMARK  147  A    between atoms: _371  and  _372
REMARK  148  A    between atoms: _374  and  _376
REMARK  149  A    between atoms: _376  and  _377
REMARK  150  A    between atoms: _376  and  _379
REMARK  151  A    between atoms: _382  and  _384
REMARK  152  A    between atoms: _384  and  _385
REMARK  153  A    between atoms: _388  and  _390
REMARK  154  A    between atoms: _390  and  _391
REMARK  155  A    between atoms: _390  and  _393
REMARK  156  A    between atoms: _393  and  _394
REMARK  157  A    between atoms: _399  and  _401
REMARK  158  A    between atoms: _401  and  _402
REMARK  159  A    between atoms: _401  and  _404
REMARK  160  A    between atoms: _404  and  _405
REMARK  161  A    between atoms: _405  and  _406
REMARK  162  A    between atoms: _406  and  _407
REMARK  163  A    between atoms: _407  and  _408
REMARK  164  A    between atoms: _412  and  _414
REMARK  165  A    between atoms: _414  and  _415
REMARK  166  A    between atoms: _414  and  _417
REMARK  167  A    between atoms: _417  and  _418
REMARK  168  A    between atoms: _423  and  _425
REMARK  169  A    between atoms: _425  and  _426
REMARK  170  A    between atoms: _428  and  _430
REMARK  171  A    between atoms: _430  and  _431
REMARK  172  A    between atoms: _430  and  _433
REMARK  173  A    between atoms: _433  and  _434
REMARK  174  A    between atoms: _434  and  _435
REMARK  175  A    between atoms: _435  and  _436
REMARK  176  A    between atoms: _436  and  _437
REMARK  177  A    between atoms: _441  and  _443
REMARK  178  A    between atoms: _443  and  _444
REMARK  179  A    between atoms: _443  and  _446
REMARK  180  A    between atoms: _446  and  _447
REMARK  181  A    between atoms: _447  and  _448
REMARK  182  A    between atoms: _448  and  _449
REMARK  183  A    between atoms: _458  and  _460
REMARK  184  A    between atoms: _460  and  _461
REMARK  185  A    between atoms: _460  and  _463
REMARK  186  A    between atoms: _463  and  _464
REMARK  187  A    between atoms: _469  and  _470
REMARK  188  A    between atoms: _472  and  _474
REMARK  189  A    between atoms: _474  and  _475
REMARK  190  A    between atoms: _474  and  _477
REMARK  191  A    between atoms: _477  and  _478
REMARK  192  A    between atoms: _478  and  _479
REMARK  193  A    between atoms: _479  and  _480
REMARK  194  A    between atoms: _480  and  _481
REMARK  195  A    between atoms: _485  and  _487
REMARK  196  A    between atoms: _487  and  _488
REMARK  197  A    between atoms: _487  and  _490
REMARK  198  A    between atoms: _490  and  _491
REMARK  199  A    between atoms: _494  and  _496
REMARK  200  A    between atoms: _496  and  _497
REMARK  201  A    between atoms: _496  and  _499
REMARK  202  A    between atoms: _499  and  _500
REMARK  203  A    between atoms: _500  and  _501
REMARK  204  A    between atoms: _504  and  _506
REMARK  205  A    between atoms: _506  and  _507
REMARK  206  A    between atoms: _510  and  _512
REMARK  207  A    between atoms: _512  and  _513
REMARK  208  A    between atoms: _512  and  _515
REMARK  209  A    between atoms: _515  and  _516
REMARK  210  A    between atoms: _518  and  _520
REMARK  211  A    between atoms: _520  and  _521
REMARK  212  A    between atoms: _523  and  _525
REMARK  213  A    between atoms: _525  and  _526
REMARK  214  A    between atoms: _525  and  _528
REMARK  215  A    between atoms: _528  and  _529
REMARK  216  A    between atoms: _532  and  _534
REMARK  217  A    between atoms: _534  and  _535
REMARK  218  A    between atoms: _537  and  _539
REMARK  219  A    between atoms: _539  and  _540
REMARK  220  A    between atoms: _539  and  _542
REMARK  221  A    between atoms: _542  and  _543
REMARK  222  A    between atoms: _548  and  _550
REMARK  223  A    between atoms: _550  and  _551
REMARK  224  A    between atoms: _550  and  _553
REMARK  225  A    between atoms: _553  and  _554
REMARK  226  A    between atoms: _554  and  _555
REMARK  227  A    between atoms: _562  and  _563
REMARK  228  A    between atoms: _563  and  _579
REMARK  229  A    between atoms: _564  and  _566
REMARK  230  A    between atoms: _566  and  _567
REMARK  231  A    between atoms: _567  and  _568
REMARK  232  A    between atoms: _572  and  _574
REMARK  233  A    between atoms: _574  and  _575
REMARK  234  A    between atoms: _574  and  _582
REMARK  235  A    between atoms: _575  and  _576
REMARK  236  A    between atoms: _576  and  _577
REMARK  237  A    between atoms: _577  and  _578
REMARK  238  A    between atoms: _578  and  _579
REMARK  239  A    between atoms: _584  and  _586
REMARK  240  A    between atoms: _586  and  _587
REMARK  241  A    between atoms: _586  and  _589
REMARK  242  A    between atoms: _589  and  _590
REMARK  243  A    between atoms: _593  and  _595
REMARK  244  A    between atoms: _595  and  _596
REMARK  245  A    between atoms: _598  and  _600
REMARK  246  A    between atoms: _600  and  _601
REMARK  247  A    between atoms: _604  and  _606
REMARK  248  A    between atoms: _606  and  _607
REMARK  249  A    between atoms: _606  and  _609
REMARK  250  A    between atoms: _609  and  _610
REMARK  251  A    between atoms: _615  and  _616
REMARK                            x       y       z     vdW  Elec       q    Type
REMARK                         _______ _______ _______ _____ _____    ______ ____
ROOT
ATOM      1  O   HOH     1      35.530  12.796  31.226  0.00  0.00    +0.000 OA
ENDROOT
TORSDOF 0
REMARK  Name = ../refined-set-2016/3l7d/3l7d_pocket.pdb
REMARK  251 active torsions:
REMARK  status: ('A' for Active; 'I' for Inactive)
REMARK    1  A    between atoms: _1  and  _3
REMARK    2  A    between atoms: _3  and  _4
REMARK    3  A    between atoms: _3  and  _6
REMARK    4  A    between atoms: _6  and  _7
REMARK    5  A    between atoms: _12  and  _13
REMARK    6  A    between atoms: _15  and  _17
REMARK    7  A    between atoms: _17  and  _18
REMARK    8  A    between atoms: _17  and  _20
REMARK    9  A    between atoms: _20  and  _21
REMARK   10  A    between atoms: _24  and  _26
REMARK   11  A    between atoms: _26  and  _27
REMARK   12  A    between atoms: _26  and  _29
REMARK   13  A    between atoms: _29  and  _30
REMARK   14  A    between atoms: _30  and  _31
REMARK   15  A    between atoms: _34  and  _36
REMARK   16  A    between atoms: _36  and  _37
REMARK   17  A    between atoms: _36  and  _39
REMARK   18  A    between atoms: _39  and  _40
REMARK   19  A    between atoms: _45  and  _47
REMARK   20  A    between atoms: _47  and  _48
REMARK   21  A    between atoms: _50  and  _52
REMARK   22  A    between atoms: _52  and  _53
REMARK   23  A    between atoms: _55  and  _57
REMARK   24  A    between atoms: _57  and  _58
REMARK   25  A    between atoms: _57  and  _60
REMARK   26  A    between atoms: _60  and  _61
REMARK   27  A    between atoms: _64  and  _66
REMARK   28  A    between atoms: _66  and  _67
REMARK   29  A    between atoms: _69  and  _71
REMARK   30  A    between atoms: _71  and  _72
REMARK   31  A    between atoms: _71  and  _74
REMARK   32  A    between atoms: _74  and  _75
REMARK   33  A    between atoms: _75  and  _76
REMARK   34  A    between atoms: _76  and  _77
REMARK   35  A    between atoms: _86  and  _88
REMARK   36  A    between atoms: _88  and  _89
REMARK   37  A    between atoms: _88  and  _91
REMARK   38  A    between atoms: _91  and  _92
REMARK   39  A    between atoms: _95  and  _97
REMARK   40  A    between atoms: _97  and  _98
REMARK   41  A    between atoms: _101  and  _103
REMARK   42  A    between atoms: _103  and  _104
REMARK   43  A    between atoms: _103  and  _106
REMARK   44  A    between atoms: _106  and  _107
REMARK   45  A    between atoms: _113  and  _115
REMARK   46  A    between atoms: _115  and  _116
REMARK   47  A    between atoms: _115  and  _118
REMARK   48  A    between atoms: _118  and  _119
REMARK   49  A    between atoms: _124  and  _125
REMARK   50  A    between atoms: _128  and  _129
REMARK   51  A    between atoms: _134  and  _136
REMARK   52  A    between atoms: _136  and  _137
REMARK   53  A    between atoms: _136  and  _139
REMARK   54  A    between atoms: _139  and  _140
REMARK   55  A    between atoms: _145  and  _147
REMARK   56  A    between atoms: _147  and  _148
REMARK   57  A    between atoms: _147  and  _150
REMARK   58  A    between atoms: _150  and  _151
REMARK   59  A    between atoms: _154  and  _156
REMARK   60  A    between atoms: _156  and  _157
REMARK   61  A    between atoms: _156  and  _159
REMARK   62  A    between atoms: _159  and  _160
REMARK   63  A    between atoms: _165  and  _167
REMARK   64  A    between atoms: _167  and  _168
REMARK   65  A    between atoms: _167  and  _170
REMARK   66  A    between atoms: _170  and  _171
REMARK   67  A    between atoms: _177  and  _179
REMARK   68  A    between atoms: _179  and  _180
REMARK   69  A    between atoms: _179  and  _182
REMARK   70  A    between atoms: _182  and  _183
REMARK   71  A    between atoms: _189  and  _191
REMARK   72  A    between atoms: _191  and  _192
REMARK   73  A    between atoms: _191  and  _194
REMARK   74  A    between atoms: _194  and  _195
REMARK   75  A    between atoms: _195  and  _196
REMARK   76  A    between atoms: _199  and  _201
REMARK   77  A    between atoms: _201  and  _202
REMARK   78  A    between atoms: _201  and  _204
REMARK   79  A    between atoms: _204  and  _205
REMARK   80  A    between atoms: _205  and  _206
REMARK   81  A    between atoms: _206  and  _207
REMARK   82  A    between atoms: _216  and  _218
REMARK   83  A    between atoms: _218  and  _219
REMARK   84  A    between atoms: _218  and  _221
REMARK   85  A    between atoms: _221  and  _222
REMARK   86  A    between atoms: _222  and  _223
REMARK   87  A    between atoms: _226  and  _228
REMARK   88  A    between atoms: _228  and  _229
REMARK   89  A    between atoms: _228  and  _231
REMARK   90  A    between atoms: _231  and  _232
REMARK   91  A    between atoms: _237  and  _239
REMARK   92  A    between atoms: _239  and  _240
REMARK   93  A    between atoms: _239  and  _242
REMARK   94  A    between atoms: _242  and  _243
REMARK   95  A    between atoms: _246  and  _248
REMARK   96  A    between atoms: _248  and  _249
REMARK   97  A    between atoms: _248  and  _251
REMARK   98  A    between atoms: _251  and  _252
REMARK   99  A    between atoms: _255  and  _257
REMARK  100  A    between atoms: _257  and  _258
REMARK  101  A    between atoms: _257  and  _260
REMARK  102  A    between atoms: _260  and  _261
REMARK  103  A    between atoms: _266  and  _268
REMARK  104  A    between atoms: _268  and  _269
REMARK  105  A    between atoms: _268  and  _271
REMARK  106  A    between atoms: _271  and  _272
REMARK  107  A    between atoms: _275  and  _277
REMARK  108  A    between atoms: _277  and  _278
REMARK  109  A    between atoms: _277  and  _280
REMARK  110  A    between atoms: _280  and  _281
REMARK  111  A    between atoms: _286  and  _288
REMARK  112  A    between atoms: _288  and  _289
REMARK  113  A    between atoms: _288  and  _291
REMARK  114  A    between atoms: _291  and  _292
REMARK  115  A    between atoms: _297  and  _299
REMARK  116  A    between atoms: _299  and  _300
REMARK  117  A    between atoms: _299  and  _302
REMARK  118  A    between atoms: _302  and  _303
REMARK  119  A    between atoms: _306  and  _308
REMARK  120  A    between atoms: _308  and  _309
REMARK  121  A    between atoms: _308  and  _311
REMARK  122  A    between atoms: _314  and  _316
REMARK  123  A    between atoms: _316  and  _317
REMARK  124  A    between atoms: _316  and  _319
REMARK  125  A    between atoms: _319  and  _320
REMARK  126  A    between atoms: _323  and  _325
REMARK  127  A    between atoms: _325  and  _326
REMARK  128  A    between atoms: _325  and  _328
REMARK  129  A    between atoms: _328  and  _329
REMARK  130  A    between atoms: _329  and  _330
REMARK  131  A    between atoms: _333  and  _335
REMARK  132  A    between atoms: _335  and  _336
REMARK  133  A    between atoms: _339  and  _341
REMARK  134  A    between atoms: _341  and  _342
REMARK  135  A    between atoms: _341  and  _344
REMARK  136  A    between atoms: _344  and  _345
REMARK  137  A    between atoms: _348  and  _350
REMARK  138  A    between atoms: _350  and  _351
REMARK  139  A    between atoms: _350  and  _353
REMARK  140  A    between atoms: _353  and  _354
REMARK  141  A    between atoms: _354  and  _355
REMARK  142  A    between atoms: _358  and  _360
REMARK  143  A    between atoms: _360  and  _361
REMARK  144  A    between atoms: _360  and  _363
REMARK  145  A    between atoms: _363  and  _364
REMARK  146  A    between atoms: _369  and  _371
REMARK  147  A    between atoms: _371  and  _372
REMARK  148  A    between atoms: _374  and  _376
REMARK  149  A    between atoms: _376  and  _377
REMARK  150  A    between atoms: _376  and  _379
REMARK  151  A    between atoms: _382  and  _384
REMARK  152  A    between atoms: _384  and  _385
REMARK  153  A    between atoms: _388  and  _390
REMARK  154  A    between atoms: _390  and  _391
REMARK  155  A    between atoms: _390  and  _393
REMARK  156  A    between atoms: _393  and  _394
REMARK  157  A    between atoms: _399  and  _401
REMARK  158  A    between atoms: _401  and  _402
REMARK  159  A    between atoms: _401  and  _404
REMARK  160  A    between atoms: _404  and  _405
REMARK  161  A    between atoms: _405  and  _406
REMARK  162  A    between atoms: _406  and  _407
REMARK  163  A    between atoms: _407  and  _408
REMARK  164  A    between atoms: _412  and  _414
REMARK  165  A    between atoms: _414  and  _415
REMARK  166  A    between atoms: _414  and  _417
REMARK  167  A    between atoms: _417  and  _418
REMARK  168  A    between atoms: _423  and  _425
REMARK  169  A    between atoms: _425  and  _426
REMARK  170  A    between atoms: _428  and  _430
REMARK  171  A    between atoms: _430  and  _431
REMARK  172  A    between atoms: _430  and  _433
REMARK  173  A    between atoms: _433  and  _434
REMARK  174  A    between atoms: _434  and  _435
REMARK  175  A    between atoms: _435  and  _436
REMARK  176  A    between atoms: _436  and  _437
REMARK  177  A    between atoms: _441  and  _443
REMARK  178  A    between atoms: _443  and  _444
REMARK  179  A    between atoms: _443  and  _446
REMARK  180  A    between atoms: _446  and  _447
REMARK  181  A    between atoms: _447  and  _448
REMARK  182  A    between atoms: _448  and  _449
REMARK  183  A    between atoms: _458  and  _460
REMARK  184  A    between atoms: _460  and  _461
REMARK  185  A    between atoms: _460  and  _463
REMARK  186  A    between atoms: _463  and  _464
REMARK  187  A    between atoms: _469  and  _470
REMARK  188  A    between atoms: _472  and  _474
REMARK  189  A    between atoms: _474  and  _475
REMARK  190  A    between atoms: _474  and  _477
REMARK  191  A    between atoms: _477  and  _478
REMARK  192  A    between atoms: _478  and  _479
REMARK  193  A    between atoms: _479  and  _480
REMARK  194  A    between atoms: _480  and  _481
REMARK  195  A    between atoms: _485  and  _487
REMARK  196  A    between atoms: _487  and  _488
REMARK  197  A    between atoms: _487  and  _490
REMARK  198  A    between atoms: _490  and  _491
REMARK  199  A    between atoms: _494  and  _496
REMARK  200  A    between atoms: _496  and  _497
REMARK  201  A    between atoms: _496  and  _499
REMARK  202  A    between atoms: _499  and  _500
REMARK  203  A    between atoms: _500  and  _501
REMARK  204  A    between atoms: _504  and  _506
REMARK  205  A    between atoms: _506  and  _507
REMARK  206  A    between atoms: _510  and  _512
REMARK  207  A    between atoms: _512  and  _513
REMARK  208  A    between atoms: _512  and  _515
REMARK  209  A    between atoms: _515  and  _516
REMARK  210  A    between atoms: _518  and  _520
REMARK  211  A    between atoms: _520  and  _521
REMARK  212  A    between atoms: _523  and  _525
REMARK  213  A    between atoms: _525  and  _526
REMARK  214  A    between atoms: _525  and  _528
REMARK  215  A    between atoms: _528  and  _529
REMARK  216  A    between atoms: _532  and  _534
REMARK  217  A    between atoms: _534  and  _535
REMARK  218  A    between atoms: _537  and  _539
REMARK  219  A    between atoms: _539  and  _540
REMARK  220  A    between atoms: _539  and  _542
REMARK  221  A    between atoms: _542  and  _543
REMARK  222  A    between atoms: _548  and  _550
REMARK  223  A    between atoms: _550  and  _551
REMARK  224  A    between atoms: _550  and  _553
REMARK  225  A    between atoms: _553  and  _554
REMARK  226  A    between atoms: _554  and  _555
REMARK  227  A    between atoms: _562  and  _563
REMARK  228  A    between atoms: _563  and  _579
REMARK  229  A    between atoms: _564  and  _566
REMARK  230  A    between atoms: _566  and  _567
REMARK  231  A    between atoms: _567  and  _568
REMARK  232  A    between atoms: _572  and  _574
REMARK  233  A    between atoms: _574  and  _575
REMARK  234  A    between atoms: _574  and  _582
REMARK  235  A    between atoms: _575  and  _576
REMARK  236  A    between atoms: _576  and  _577
REMARK  237  A    between atoms: _577  and  _578
REMARK  238  A    between atoms: _578  and  _579
REMARK  239  A    between atoms: _584  and  _586
REMARK  240  A    between atoms: _586  and  _587
REMARK  241  A    between atoms: _586  and  _589
REMARK  242  A    between atoms: _589  and  _590
REMARK  243  A    between atoms: _593  and  _595
REMARK  244  A    between atoms: _595  and  _596
REMARK  245  A    between atoms: _598  and  _600
REMARK  246  A    between atoms: _600  and  _601
REMARK  247  A    between atoms: _604  and  _606
REMARK  248  A    between atoms: _606  and  _607
REMARK  249  A    between atoms: _606  and  _609
REMARK  250  A    between atoms: _609  and  _610
REMARK  251  A    between atoms: _615  and  _616
REMARK                            x       y       z     vdW  Elec       q    Type
REMARK                         _______ _______ _______ _____ _____    ______ ____
ROOT
ATOM      1  O   HOH     1      36.952  19.550  37.281  0.00  0.00    +0.000 OA
ENDROOT
TORSDOF 0
REMARK  Name = ../refined-set-2016/3l7d/3l7d_pocket.pdb
REMARK  251 active torsions:
REMARK  status: ('A' for Active; 'I' for Inactive)
REMARK    1  A    between atoms: _1  and  _3
REMARK    2  A    between atoms: _3  and  _4
REMARK    3  A    between atoms: _3  and  _6
REMARK    4  A    between atoms: _6  and  _7
REMARK    5  A    between atoms: _12  and  _13
REMARK    6  A    between atoms: _15  and  _17
REMARK    7  A    between atoms: _17  and  _18
REMARK    8  A    between atoms: _17  and  _20
REMARK    9  A    between atoms: _20  and  _21
REMARK   10  A    between atoms: _24  and  _26
REMARK   11  A    between atoms: _26  and  _27
REMARK   12  A    between atoms: _26  and  _29
REMARK   13  A    between atoms: _29  and  _30
REMARK   14  A    between atoms: _30  and  _31
REMARK   15  A    between atoms: _34  and  _36
REMARK   16  A    between atoms: _36  and  _37
REMARK   17  A    between atoms: _36  and  _39
REMARK   18  A    between atoms: _39  and  _40
REMARK   19  A    between atoms: _45  and  _47
REMARK   20  A    between atoms: _47  and  _48
REMARK   21  A    between atoms: _50  and  _52
REMARK   22  A    between atoms: _52  and  _53
REMARK   23  A    between atoms: _55  and  _57
REMARK   24  A    between atoms: _57  and  _58
REMARK   25  A    between atoms: _57  and  _60
REMARK   26  A    between atoms: _60  and  _61
REMARK   27  A    between atoms: _64  and  _66
REMARK   28  A    between atoms: _66  and  _67
REMARK   29  A    between atoms: _69  and  _71
REMARK   30  A    between atoms: _71  and  _72
REMARK   31  A    between atoms: _71  and  _74
REMARK   32  A    between atoms: _74  and  _75
REMARK   33  A    between atoms: _75  and  _76
REMARK   34  A    between atoms: _76  and  _77
REMARK   35  A    between atoms: _86  and  _88
REMARK   36  A    between atoms: _88  and  _89
REMARK   37  A    between atoms: _88  and  _91
REMARK   38  A    between atoms: _91  and  _92
REMARK   39  A    between atoms: _95  and  _97
REMARK   40  A    between atoms: _97  and  _98
REMARK   41  A    between atoms: _101  and  _103
REMARK   42  A    between atoms: _103  and  _104
REMARK   43  A    between atoms: _103  and  _106
REMARK   44  A    between atoms: _106  and  _107
REMARK   45  A    between atoms: _113  and  _115
REMARK   46  A    between atoms: _115  and  _116
REMARK   47  A    between atoms: _115  and  _118
REMARK   48  A    between atoms: _118  and  _119
REMARK   49  A    between atoms: _124  and  _125
REMARK   50  A    between atoms: _128  and  _129
REMARK   51  A    between atoms: _134  and  _136
REMARK   52  A    between atoms: _136  and  _137
REMARK   53  A    between atoms: _136  and  _139
REMARK   54  A    between atoms: _139  and  _140
REMARK   55  A    between atoms: _145  and  _147
REMARK   56  A    between atoms: _147  and  _148
REMARK   57  A    between atoms: _147  and  _150
REMARK   58  A    between atoms: _150  and  _151
REMARK   59  A    between atoms: _154  and  _156
REMARK   60  A    between atoms: _156  and  _157
REMARK   61  A    between atoms: _156  and  _159
REMARK   62  A    between atoms: _159  and  _160
REMARK   63  A    between atoms: _165  and  _167
REMARK   64  A    between atoms: _167  and  _168
REMARK   65  A    between atoms: _167  and  _170
REMARK   66  A    between atoms: _170  and  _171
REMARK   67  A    between atoms: _177  and  _179
REMARK   68  A    between atoms: _179  and  _180
REMARK   69  A    between atoms: _179  and  _182
REMARK   70  A    between atoms: _182  and  _183
REMARK   71  A    between atoms: _189  and  _191
REMARK   72  A    between atoms: _191  and  _192
REMARK   73  A    between atoms: _191  and  _194
REMARK   74  A    between atoms: _194  and  _195
REMARK   75  A    between atoms: _195  and  _196
REMARK   76  A    between atoms: _199  and  _201
REMARK   77  A    between atoms: _201  and  _202
REMARK   78  A    between atoms: _201  and  _204
REMARK   79  A    between atoms: _204  and  _205
REMARK   80  A    between atoms: _205  and  _206
REMARK   81  A    between atoms: _206  and  _207
REMARK   82  A    between atoms: _216  and  _218
REMARK   83  A    between atoms: _218  and  _219
REMARK   84  A    between atoms: _218  and  _221
REMARK   85  A    between atoms: _221  and  _222
REMARK   86  A    between atoms: _222  and  _223
REMARK   87  A    between atoms: _226  and  _228
REMARK   88  A    between atoms: _228  and  _229
REMARK   89  A    between atoms: _228  and  _231
REMARK   90  A    between atoms: _231  and  _232
REMARK   91  A    between atoms: _237  and  _239
REMARK   92  A    between atoms: _239  and  _240
REMARK   93  A    between atoms: _239  and  _242
REMARK   94  A    between atoms: _242  and  _243
REMARK   95  A    between atoms: _246  and  _248
REMARK   96  A    between atoms: _248  and  _249
REMARK   97  A    between atoms: _248  and  _251
REMARK   98  A    between atoms: _251  and  _252
REMARK   99  A    between atoms: _255  and  _257
REMARK  100  A    between atoms: _257  and  _258
REMARK  101  A    between atoms: _257  and  _260
REMARK  102  A    between atoms: _260  and  _261
REMARK  103  A    between atoms: _266  and  _268
REMARK  104  A    between atoms: _268  and  _269
REMARK  105  A    between atoms: _268  and  _271
REMARK  106  A    between atoms: _271  and  _272
REMARK  107  A    between atoms: _275  and  _277
REMARK  108  A    between atoms: _277  and  _278
REMARK  109  A    between atoms: _277  and  _280
REMARK  110  A    between atoms: _280  and  _281
REMARK  111  A    between atoms: _286  and  _288
REMARK  112  A    between atoms: _288  and  _289
REMARK  113  A    between atoms: _288  and  _291
REMARK  114  A    between atoms: _291  and  _292
REMARK  115  A    between atoms: _297  and  _299
REMARK  116  A    between atoms: _299  and  _300
REMARK  117  A    between atoms: _299  and  _302
REMARK  118  A    between atoms: _302  and  _303
REMARK  119  A    between atoms: _306  and  _308
REMARK  120  A    between atoms: _308  and  _309
REMARK  121  A    between atoms: _308  and  _311
REMARK  122  A    between atoms: _314  and  _316
REMARK  123  A    between atoms: _316  and  _317
REMARK  124  A    between atoms: _316  and  _319
REMARK  125  A    between atoms: _319  and  _320
REMARK  126  A    between atoms: _323  and  _325
REMARK  127  A    between atoms: _325  and  _326
REMARK  128  A    between atoms: _325  and  _328
REMARK  129  A    between atoms: _328  and  _329
REMARK  130  A    between atoms: _329  and  _330
REMARK  131  A    between atoms: _333  and  _335
REMARK  132  A    between atoms: _335  and  _336
REMARK  133  A    between atoms: _339  and  _341
REMARK  134  A    between atoms: _341  and  _342
REMARK  135  A    between atoms: _341  and  _344
REMARK  136  A    between atoms: _344  and  _345
REMARK  137  A    between atoms: _348  and  _350
REMARK  138  A    between atoms: _350  and  _351
REMARK  139  A    between atoms: _350  and  _353
REMARK  140  A    between atoms: _353  and  _354
REMARK  141  A    between atoms: _354  and  _355
REMARK  142  A    between atoms: _358  and  _360
REMARK  143  A    between atoms: _360  and  _361
REMARK  144  A    between atoms: _360  and  _363
REMARK  145  A    between atoms: _363  and  _364
REMARK  146  A    between atoms: _369  and  _371
REMARK  147  A    between atoms: _371  and  _372
REMARK  148  A    between atoms: _374  and  _376
REMARK  149  A    between atoms: _376  and  _377
REMARK  150  A    between atoms: _376  and  _379
REMARK  151  A    between atoms: _382  and  _384
REMARK  152  A    between atoms: _384  and  _385
REMARK  153  A    between atoms: _388  and  _390
REMARK  154  A    between atoms: _390  and  _391
REMARK  155  A    between atoms: _390  and  _393
REMARK  156  A    between atoms: _393  and  _394
REMARK  157  A    between atoms: _399  and  _401
REMARK  158  A    between atoms: _401  and  _402
REMARK  159  A    between atoms: _401  and  _404
REMARK  160  A    between atoms: _404  and  _405
REMARK  161  A    between atoms: _405  and  _406
REMARK  162  A    between atoms: _406  and  _407
REMARK  163  A    between atoms: _407  and  _408
REMARK  164  A    between atoms: _412  and  _414
REMARK  165  A    between atoms: _414  and  _415
REMARK  166  A    between atoms: _414  and  _417
REMARK  167  A    between atoms: _417  and  _418
REMARK  168  A    between atoms: _423  and  _425
REMARK  169  A    between atoms: _425  and  _426
REMARK  170  A    between atoms: _428  and  _430
REMARK  171  A    between atoms: _430  and  _431
REMARK  172  A    between atoms: _430  and  _433
REMARK  173  A    between atoms: _433  and  _434
REMARK  174  A    between atoms: _434  and  _435
REMARK  175  A    between atoms: _435  and  _436
REMARK  176  A    between atoms: _436  and  _437
REMARK  177  A    between atoms: _441  and  _443
REMARK  178  A    between atoms: _443  and  _444
REMARK  179  A    between atoms: _443  and  _446
REMARK  180  A    between atoms: _446  and  _447
REMARK  181  A    between atoms: _447  and  _448
REMARK  182  A    between atoms: _448  and  _449
REMARK  183  A    between atoms: _458  and  _460
REMARK  184  A    between atoms: _460  and  _461
REMARK  185  A    between atoms: _460  and  _463
REMARK  186  A    between atoms: _463  and  _464
REMARK  187  A    between atoms: _469  and  _470
REMARK  188  A    between atoms: _472  and  _474
REMARK  189  A    between atoms: _474  and  _475
REMARK  190  A    between atoms: _474  and  _477
REMARK  191  A    between atoms: _477  and  _478
REMARK  192  A    between atoms: _478  and  _479
REMARK  193  A    between atoms: _479  and  _480
REMARK  194  A    between atoms: _480  and  _481
REMARK  195  A    between atoms: _485  and  _487
REMARK  196  A    between atoms: _487  and  _488
REMARK  197  A    between atoms: _487  and  _490
REMARK  198  A    between atoms: _490  and  _491
REMARK  199  A    between atoms: _494  and  _496
REMARK  200  A    between atoms: _496  and  _497
REMARK  201  A    between atoms: _496  and  _499
REMARK  202  A    between atoms: _499  and  _500
REMARK  203  A    between atoms: _500  and  _501
REMARK  204  A    between atoms: _504  and  _506
REMARK  205  A    between atoms: _506  and  _507
REMARK  206  A    between atoms: _510  and  _512
REMARK  207  A    between atoms: _512  and  _513
REMARK  208  A    between atoms: _512  and  _515
REMARK  209  A    between atoms: _515  and  _516
REMARK  210  A    between atoms: _518  and  _520
REMARK  211  A    between atoms: _520  and  _521
REMARK  212  A    between atoms: _523  and  _525
REMARK  213  A    between atoms: _525  and  _526
REMARK  214  A    between atoms: _525  and  _528
REMARK  215  A    between atoms: _528  and  _529
REMARK  216  A    between atoms: _532  and  _534
REMARK  217  A    between atoms: _534  and  _535
REMARK  218  A    between atoms: _537  and  _539
REMARK  219  A    between atoms: _539  and  _540
REMARK  220  A    between atoms: _539  and  _542
REMARK  221  A    between atoms: _542  and  _543
REMARK  222  A    between atoms: _548  and  _550
REMARK  223  A    between atoms: _550  and  _551
REMARK  224  A    between atoms: _550  and  _553
REMARK  225  A    between atoms: _553  and  _554
REMARK  226  A    between atoms: _554  and  _555
REMARK  227  A    between atoms: _562  and  _563
REMARK  228  A    between atoms: _563  and  _579
REMARK  229  A    between atoms: _564  and  _566
REMARK  230  A    between atoms: _566  and  _567
REMARK  231  A    between atoms: _567  and  _568
REMARK  232  A    between atoms: _572  and  _574
REMARK  233  A    between atoms: _574  and  _575
REMARK  234  A    between atoms: _574  and  _582
REMARK  235  A    between atoms: _575  and  _576
REMARK  236  A    between atoms: _576  and  _577
REMARK  237  A    between atoms: _577  and  _578
REMARK  238  A    between atoms: _578  and  _579
REMARK  239  A    between atoms: _584  and  _586
REMARK  240  A    between atoms: _586  and  _587
REMARK  241  A    between atoms: _586  and  _589
REMARK  242  A    between atoms: _589  and  _590
REMARK  243  A    between atoms: _593  and  _595
REMARK  244  A    between atoms: _595  and  _596
REMARK  245  A    between atoms: _598  and  _600
REMARK  246  A    between atoms: _600  and  _601
REMARK  247  A    between atoms: _604  and  _606
REMARK  248  A    between atoms: _606  and  _607
REMARK  249  A    between atoms: _606  and  _609
REMARK  250  A    between atoms: _609  and  _610
REMARK  251  A    between atoms: _615  and  _616
REMARK                            x       y       z     vdW  Elec       q    Type
REMARK                         _______ _______ _______ _____ _____    ______ ____
ROOT
ATOM      1  O   HOH     1      31.318  24.005  33.589  0.00  0.00    +0.000 OA
ENDROOT
TORSDOF 0
REMARK  Name = ../refined-set-2016/3l7d/3l7d_pocket.pdb
REMARK  251 active torsions:
REMARK  status: ('A' for Active; 'I' for Inactive)
REMARK    1  A    between atoms: _1  and  _3
REMARK    2  A    between atoms: _3  and  _4
REMARK    3  A    between atoms: _3  and  _6
REMARK    4  A    between atoms: _6  and  _7
REMARK    5  A    between atoms: _12  and  _13
REMARK    6  A    between atoms: _15  and  _17
REMARK    7  A    between atoms: _17  and  _18
REMARK    8  A    between atoms: _17  and  _20
REMARK    9  A    between atoms: _20  and  _21
REMARK   10  A    between atoms: _24  and  _26
REMARK   11  A    between atoms: _26  and  _27
REMARK   12  A    between atoms: _26  and  _29
REMARK   13  A    between atoms: _29  and  _30
REMARK   14  A    between atoms: _30  and  _31
REMARK   15  A    between atoms: _34  and  _36
REMARK   16  A    between atoms: _36  and  _37
REMARK   17  A    between atoms: _36  and  _39
REMARK   18  A    between atoms: _39  and  _40
REMARK   19  A    between atoms: _45  and  _47
REMARK   20  A    between atoms: _47  and  _48
REMARK   21  A    between atoms: _50  and  _52
REMARK   22  A    between atoms: _52  and  _53
REMARK   23  A    between atoms: _55  and  _57
REMARK   24  A    between atoms: _57  and  _58
REMARK   25  A    between atoms: _57  and  _60
REMARK   26  A    between atoms: _60  and  _61
REMARK   27  A    between atoms: _64  and  _66
REMARK   28  A    between atoms: _66  and  _67
REMARK   29  A    between atoms: _69  and  _71
REMARK   30  A    between atoms: _71  and  _72
REMARK   31  A    between atoms: _71  and  _74
REMARK   32  A    between atoms: _74  and  _75
REMARK   33  A    between atoms: _75  and  _76
REMARK   34  A    between atoms: _76  and  _77
REMARK   35  A    between atoms: _86  and  _88
REMARK   36  A    between atoms: _88  and  _89
REMARK   37  A    between atoms: _88  and  _91
REMARK   38  A    between atoms: _91  and  _92
REMARK   39  A    between atoms: _95  and  _97
REMARK   40  A    between atoms: _97  and  _98
REMARK   41  A    between atoms: _101  and  _103
REMARK   42  A    between atoms: _103  and  _104
REMARK   43  A    between atoms: _103  and  _106
REMARK   44  A    between atoms: _106  and  _107
REMARK   45  A    between atoms: _113  and  _115
REMARK   46  A    between atoms: _115  and  _116
REMARK   47  A    between atoms: _115  and  _118
REMARK   48  A    between atoms: _118  and  _119
REMARK   49  A    between atoms: _124  and  _125
REMARK   50  A    between atoms: _128  and  _129
REMARK   51  A    between atoms: _134  and  _136
REMARK   52  A    between atoms: _136  and  _137
REMARK   53  A    between atoms: _136  and  _139
REMARK   54  A    between atoms: _139  and  _140
REMARK   55  A    between atoms: _145  and  _147
REMARK   56  A    between atoms: _147  and  _148
REMARK   57  A    between atoms: _147  and  _150
REMARK   58  A    between atoms: _150  and  _151
REMARK   59  A    between atoms: _154  and  _156
REMARK   60  A    between atoms: _156  and  _157
REMARK   61  A    between atoms: _156  and  _159
REMARK   62  A    between atoms: _159  and  _160
REMARK   63  A    between atoms: _165  and  _167
REMARK   64  A    between atoms: _167  and  _168
REMARK   65  A    between atoms: _167  and  _170
REMARK   66  A    between atoms: _170  and  _171
REMARK   67  A    between atoms: _177  and  _179
REMARK   68  A    between atoms: _179  and  _180
REMARK   69  A    between atoms: _179  and  _182
REMARK   70  A    between atoms: _182  and  _183
REMARK   71  A    between atoms: _189  and  _191
REMARK   72  A    between atoms: _191  and  _192
REMARK   73  A    between atoms: _191  and  _194
REMARK   74  A    between atoms: _194  and  _195
REMARK   75  A    between atoms: _195  and  _196
REMARK   76  A    between atoms: _199  and  _201
REMARK   77  A    between atoms: _201  and  _202
REMARK   78  A    between atoms: _201  and  _204
REMARK   79  A    between atoms: _204  and  _205
REMARK   80  A    between atoms: _205  and  _206
REMARK   81  A    between atoms: _206  and  _207
REMARK   82  A    between atoms: _216  and  _218
REMARK   83  A    between atoms: _218  and  _219
REMARK   84  A    between atoms: _218  and  _221
REMARK   85  A    between atoms: _221  and  _222
REMARK   86  A    between atoms: _222  and  _223
REMARK   87  A    between atoms: _226  and  _228
REMARK   88  A    between atoms: _228  and  _229
REMARK   89  A    between atoms: _228  and  _231
REMARK   90  A    between atoms: _231  and  _232
REMARK   91  A    between atoms: _237  and  _239
REMARK   92  A    between atoms: _239  and  _240
REMARK   93  A    between atoms: _239  and  _242
REMARK   94  A    between atoms: _242  and  _243
REMARK   95  A    between atoms: _246  and  _248
REMARK   96  A    between atoms: _248  and  _249
REMARK   97  A    between atoms: _248  and  _251
REMARK   98  A    between atoms: _251  and  _252
REMARK   99  A    between atoms: _255  and  _257
REMARK  100  A    between atoms: _257  and  _258
REMARK  101  A    between atoms: _257  and  _260
REMARK  102  A    between atoms: _260  and  _261
REMARK  103  A    between atoms: _266  and  _268
REMARK  104  A    between atoms: _268  and  _269
REMARK  105  A    between atoms: _268  and  _271
REMARK  106  A    between atoms: _271  and  _272
REMARK  107  A    between atoms: _275  and  _277
REMARK  108  A    between atoms: _277  and  _278
REMARK  109  A    between atoms: _277  and  _280
REMARK  110  A    between atoms: _280  and  _281
REMARK  111  A    between atoms: _286  and  _288
REMARK  112  A    between atoms: _288  and  _289
REMARK  113  A    between atoms: _288  and  _291
REMARK  114  A    between atoms: _291  and  _292
REMARK  115  A    between atoms: _297  and  _299
REMARK  116  A    between atoms: _299  and  _300
REMARK  117  A    between atoms: _299  and  _302
REMARK  118  A    between atoms: _302  and  _303
REMARK  119  A    between atoms: _306  and  _308
REMARK  120  A    between atoms: _308  and  _309
REMARK  121  A    between atoms: _308  and  _311
REMARK  122  A    between atoms: _314  and  _316
REMARK  123  A    between atoms: _316  and  _317
REMARK  124  A    between atoms: _316  and  _319
REMARK  125  A    between atoms: _319  and  _320
REMARK  126  A    between atoms: _323  and  _325
REMARK  127  A    between atoms: _325  and  _326
REMARK  128  A    between atoms: _325  and  _328
REMARK  129  A    between atoms: _328  and  _329
REMARK  130  A    between atoms: _329  and  _330
REMARK  131  A    between atoms: _333  and  _335
REMARK  132  A    between atoms: _335  and  _336
REMARK  133  A    between atoms: _339  and  _341
REMARK  134  A    between atoms: _341  and  _342
REMARK  135  A    between atoms: _341  and  _344
REMARK  136  A    between atoms: _344  and  _345
REMARK  137  A    between atoms: _348  and  _350
REMARK  138  A    between atoms: _350  and  _351
REMARK  139  A    between atoms: _350  and  _353
REMARK  140  A    between atoms: _353  and  _354
REMARK  141  A    between atoms: _354  and  _355
REMARK  142  A    between atoms: _358  and  _360
REMARK  143  A    between atoms: _360  and  _361
REMARK  144  A    between atoms: _360  and  _363
REMARK  145  A    between atoms: _363  and  _364
REMARK  146  A    between atoms: _369  and  _371
REMARK  147  A    between atoms: _371  and  _372
REMARK  148  A    between atoms: _374  and  _376
REMARK  149  A    between atoms: _376  and  _377
REMARK  150  A    between atoms: _376  and  _379
REMARK  151  A    between atoms: _382  and  _384
REMARK  152  A    between atoms: _384  and  _385
REMARK  153  A    between atoms: _388  and  _390
REMARK  154  A    between atoms: _390  and  _391
REMARK  155  A    between atoms: _390  and  _393
REMARK  156  A    between atoms: _393  and  _394
REMARK  157  A    between atoms: _399  and  _401
REMARK  158  A    between atoms: _401  and  _402
REMARK  159  A    between atoms: _401  and  _404
REMARK  160  A    between atoms: _404  and  _405
REMARK  161  A    between atoms: _405  and  _406
REMARK  162  A    between atoms: _406  and  _407
REMARK  163  A    between atoms: _407  and  _408
REMARK  164  A    between atoms: _412  and  _414
REMARK  165  A    between atoms: _414  and  _415
REMARK  166  A    between atoms: _414  and  _417
REMARK  167  A    between atoms: _417  and  _418
REMARK  168  A    between atoms: _423  and  _425
REMARK  169  A    between atoms: _425  and  _426
REMARK  170  A    between atoms: _428  and  _430
REMARK  171  A    between atoms: _430  and  _431
REMARK  172  A    between atoms: _430  and  _433
REMARK  173  A    between atoms: _433  and  _434
REMARK  174  A    between atoms: _434  and  _435
REMARK  175  A    between atoms: _435  and  _436
REMARK  176  A    between atoms: _436  and  _437
REMARK  177  A    between atoms: _441  and  _443
REMARK  178  A    between atoms: _443  and  _444
REMARK  179  A    between atoms: _443  and  _446
REMARK  180  A    between atoms: _446  and  _447
REMARK  181  A    between atoms: _447  and  _448
REMARK  182  A    between atoms: _448  and  _449
REMARK  183  A    between atoms: _458  and  _460
REMARK  184  A    between atoms: _460  and  _461
REMARK  185  A    between atoms: _460  and  _463
REMARK  186  A    between atoms: _463  and  _464
REMARK  187  A    between atoms: _469  and  _470
REMARK  188  A    between atoms: _472  and  _474
REMARK  189  A    between atoms: _474  and  _475
REMARK  190  A    between atoms: _474  and  _477
REMARK  191  A    between atoms: _477  and  _478
REMARK  192  A    between atoms: _478  and  _479
REMARK  193  A    between atoms: _479  and  _480
REMARK  194  A    between atoms: _480  and  _481
REMARK  195  A    between atoms: _485  and  _487
REMARK  196  A    between atoms: _487  and  _488
REMARK  197  A    between atoms: _487  and  _490
REMARK  198  A    between atoms: _490  and  _491
REMARK  199  A    between atoms: _494  and  _496
REMARK  200  A    between atoms: _496  and  _497
REMARK  201  A    between atoms: _496  and  _499
REMARK  202  A    between atoms: _499  and  _500
REMARK  203  A    between atoms: _500  and  _501
REMARK  204  A    between atoms: _504  and  _506
REMARK  205  A    between atoms: _506  and  _507
REMARK  206  A    between atoms: _510  and  _512
REMARK  207  A    between atoms: _512  and  _513
REMARK  208  A    between atoms: _512  and  _515
REMARK  209  A    between atoms: _515  and  _516
REMARK  210  A    between atoms: _518  and  _520
REMARK  211  A    between atoms: _520  and  _521
REMARK  212  A    between atoms: _523  and  _525
REMARK  213  A    between atoms: _525  and  _526
REMARK  214  A    between atoms: _525  and  _528
REMARK  215  A    between atoms: _528  and  _529
REMARK  216  A    between atoms: _532  and  _534
REMARK  217  A    between atoms: _534  and  _535
REMARK  218  A    between atoms: _537  and  _539
REMARK  219  A    between atoms: _539  and  _540
REMARK  220  A    between atoms: _539  and  _542
REMARK  221  A    between atoms: _542  and  _543
REMARK  222  A    between atoms: _548  and  _550
REMARK  223  A    between atoms: _550  and  _551
REMARK  224  A    between atoms: _550  and  _553
REMARK  225  A    between atoms: _553  and  _554
REMARK  226  A    between atoms: _554  and  _555
REMARK  227  A    between atoms: _562  and  _563
REMARK  228  A    between atoms: _563  and  _579
REMARK  229  A    between atoms: _564  and  _566
REMARK  230  A    between atoms: _566  and  _567
REMARK  231  A    between atoms: _567  and  _568
REMARK  232  A    between atoms: _572  and  _574
REMARK  233  A    between atoms: _574  and  _575
REMARK  234  A    between atoms: _574  and  _582
REMARK  235  A    between atoms: _575  and  _576
REMARK  236  A    between atoms: _576  and  _577
REMARK  237  A    between atoms: _577  and  _578
REMARK  238  A    between atoms: _578  and  _579
REMARK  239  A    between atoms: _584  and  _586
REMARK  240  A    between atoms: _586  and  _587
REMARK  241  A    between atoms: _586  and  _589
REMARK  242  A    between atoms: _589  and  _590
REMARK  243  A    between atoms: _593  and  _595
REMARK  244  A    between atoms: _595  and  _596
REMARK  245  A    between atoms: _598  and  _600
REMARK  246  A    between atoms: _600  and  _601
REMARK  247  A    between atoms: _604  and  _606
REMARK  248  A    between atoms: _606  and  _607
REMARK  249  A    between atoms: _606  and  _609
REMARK  250  A    between atoms: _609  and  _610
REMARK  251  A    between atoms: _615  and  _616
REMARK                            x       y       z     vdW  Elec       q    Type
REMARK                         _______ _______ _______ _____ _____    ______ ____
ROOT
ATOM      1  O   HOH     1      39.027  23.863  22.356  0.00  0.00    +0.000 OA
ENDROOT
TORSDOF 0
REMARK  Name = ../refined-set-2016/3l7d/3l7d_pocket.pdb
REMARK  251 active torsions:
REMARK  status: ('A' for Active; 'I' for Inactive)
REMARK    1  A    between atoms: _1  and  _3
REMARK    2  A    between atoms: _3  and  _4
REMARK    3  A    between atoms: _3  and  _6
REMARK    4  A    between atoms: _6  and  _7
REMARK    5  A    between atoms: _12  and  _13
REMARK    6  A    between atoms: _15  and  _17
REMARK    7  A    between atoms: _17  and  _18
REMARK    8  A    between atoms: _17  and  _20
REMARK    9  A    between atoms: _20  and  _21
REMARK   10  A    between atoms: _24  and  _26
REMARK   11  A    between atoms: _26  and  _27
REMARK   12  A    between atoms: _26  and  _29
REMARK   13  A    between atoms: _29  and  _30
REMARK   14  A    between atoms: _30  and  _31
REMARK   15  A    between atoms: _34  and  _36
REMARK   16  A    between atoms: _36  and  _37
REMARK   17  A    between atoms: _36  and  _39
REMARK   18  A    between atoms: _39  and  _40
REMARK   19  A    between atoms: _45  and  _47
REMARK   20  A    between atoms: _47  and  _48
REMARK   21  A    between atoms: _50  and  _52
REMARK   22  A    between atoms: _52  and  _53
REMARK   23  A    between atoms: _55  and  _57
REMARK   24  A    between atoms: _57  and  _58
REMARK   25  A    between atoms: _57  and  _60
REMARK   26  A    between atoms: _60  and  _61
REMARK   27  A    between atoms: _64  and  _66
REMARK   28  A    between atoms: _66  and  _67
REMARK   29  A    between atoms: _69  and  _71
REMARK   30  A    between atoms: _71  and  _72
REMARK   31  A    between atoms: _71  and  _74
REMARK   32  A    between atoms: _74  and  _75
REMARK   33  A    between atoms: _75  and  _76
REMARK   34  A    between atoms: _76  and  _77
REMARK   35  A    between atoms: _86  and  _88
REMARK   36  A    between atoms: _88  and  _89
REMARK   37  A    between atoms: _88  and  _91
REMARK   38  A    between atoms: _91  and  _92
REMARK   39  A    between atoms: _95  and  _97
REMARK   40  A    between atoms: _97  and  _98
REMARK   41  A    between atoms: _101  and  _103
REMARK   42  A    between atoms: _103  and  _104
REMARK   43  A    between atoms: _103  and  _106
REMARK   44  A    between atoms: _106  and  _107
REMARK   45  A    between atoms: _113  and  _115
REMARK   46  A    between atoms: _115  and  _116
REMARK   47  A    between atoms: _115  and  _118
REMARK   48  A    between atoms: _118  and  _119
REMARK   49  A    between atoms: _124  and  _125
REMARK   50  A    between atoms: _128  and  _129
REMARK   51  A    between atoms: _134  and  _136
REMARK   52  A    between atoms: _136  and  _137
REMARK   53  A    between atoms: _136  and  _139
REMARK   54  A    between atoms: _139  and  _140
REMARK   55  A    between atoms: _145  and  _147
REMARK   56  A    between atoms: _147  and  _148
REMARK   57  A    between atoms: _147  and  _150
REMARK   58  A    between atoms: _150  and  _151
REMARK   59  A    between atoms: _154  and  _156
REMARK   60  A    between atoms: _156  and  _157
REMARK   61  A    between atoms: _156  and  _159
REMARK   62  A    between atoms: _159  and  _160
REMARK   63  A    between atoms: _165  and  _167
REMARK   64  A    between atoms: _167  and  _168
REMARK   65  A    between atoms: _167  and  _170
REMARK   66  A    between atoms: _170  and  _171
REMARK   67  A    between atoms: _177  and  _179
REMARK   68  A    between atoms: _179  and  _180
REMARK   69  A    between atoms: _179  and  _182
REMARK   70  A    between atoms: _182  and  _183
REMARK   71  A    between atoms: _189  and  _191
REMARK   72  A    between atoms: _191  and  _192
REMARK   73  A    between atoms: _191  and  _194
REMARK   74  A    between atoms: _194  and  _195
REMARK   75  A    between atoms: _195  and  _196
REMARK   76  A    between atoms: _199  and  _201
REMARK   77  A    between atoms: _201  and  _202
REMARK   78  A    between atoms: _201  and  _204
REMARK   79  A    between atoms: _204  and  _205
REMARK   80  A    between atoms: _205  and  _206
REMARK   81  A    between atoms: _206  and  _207
REMARK   82  A    between atoms: _216  and  _218
REMARK   83  A    between atoms: _218  and  _219
REMARK   84  A    between atoms: _218  and  _221
REMARK   85  A    between atoms: _221  and  _222
REMARK   86  A    between atoms: _222  and  _223
REMARK   87  A    between atoms: _226  and  _228
REMARK   88  A    between atoms: _228  and  _229
REMARK   89  A    between atoms: _228  and  _231
REMARK   90  A    between atoms: _231  and  _232
REMARK   91  A    between atoms: _237  and  _239
REMARK   92  A    between atoms: _239  and  _240
REMARK   93  A    between atoms: _239  and  _242
REMARK   94  A    between atoms: _242  and  _243
REMARK   95  A    between atoms: _246  and  _248
REMARK   96  A    between atoms: _248  and  _249
REMARK   97  A    between atoms: _248  and  _251
REMARK   98  A    between atoms: _251  and  _252
REMARK   99  A    between atoms: _255  and  _257
REMARK  100  A    between atoms: _257  and  _258
REMARK  101  A    between atoms: _257  and  _260
REMARK  102  A    between atoms: _260  and  _261
REMARK  103  A    between atoms: _266  and  _268
REMARK  104  A    between atoms: _268  and  _269
REMARK  105  A    between atoms: _268  and  _271
REMARK  106  A    between atoms: _271  and  _272
REMARK  107  A    between atoms: _275  and  _277
REMARK  108  A    between atoms: _277  and  _278
REMARK  109  A    between atoms: _277  and  _280
REMARK  110  A    between atoms: _280  and  _281
REMARK  111  A    between atoms: _286  and  _288
REMARK  112  A    between atoms: _288  and  _289
REMARK  113  A    between atoms: _288  and  _291
REMARK  114  A    between atoms: _291  and  _292
REMARK  115  A    between atoms: _297  and  _299
REMARK  116  A    between atoms: _299  and  _300
REMARK  117  A    between atoms: _299  and  _302
REMARK  118  A    between atoms: _302  and  _303
REMARK  119  A    between atoms: _306  and  _308
REMARK  120  A    between atoms: _308  and  _309
REMARK  121  A    between atoms: _308  and  _311
REMARK  122  A    between atoms: _314  and  _316
REMARK  123  A    between atoms: _316  and  _317
REMARK  124  A    between atoms: _316  and  _319
REMARK  125  A    between atoms: _319  and  _320
REMARK  126  A    between atoms: _323  and  _325
REMARK  127  A    between atoms: _325  and  _326
REMARK  128  A    between atoms: _325  and  _328
REMARK  129  A    between atoms: _328  and  _329
REMARK  130  A    between atoms: _329  and  _330
REMARK  131  A    between atoms: _333  and  _335
REMARK  132  A    between atoms: _335  and  _336
REMARK  133  A    between atoms: _339  and  _341
REMARK  134  A    between atoms: _341  and  _342
REMARK  135  A    between atoms: _341  and  _344
REMARK  136  A    between atoms: _344  and  _345
REMARK  137  A    between atoms: _348  and  _350
REMARK  138  A    between atoms: _350  and  _351
REMARK  139  A    between atoms: _350  and  _353
REMARK  140  A    between atoms: _353  and  _354
REMARK  141  A    between atoms: _354  and  _355
REMARK  142  A    between atoms: _358  and  _360
REMARK  143  A    between atoms: _360  and  _361
REMARK  144  A    between atoms: _360  and  _363
REMARK  145  A    between atoms: _363  and  _364
REMARK  146  A    between atoms: _369  and  _371
REMARK  147  A    between atoms: _371  and  _372
REMARK  148  A    between atoms: _374  and  _376
REMARK  149  A    between atoms: _376  and  _377
REMARK  150  A    between atoms: _376  and  _379
REMARK  151  A    between atoms: _382  and  _384
REMARK  152  A    between atoms: _384  and  _385
REMARK  153  A    between atoms: _388  and  _390
REMARK  154  A    between atoms: _390  and  _391
REMARK  155  A    between atoms: _390  and  _393
REMARK  156  A    between atoms: _393  and  _394
REMARK  157  A    between atoms: _399  and  _401
REMARK  158  A    between atoms: _401  and  _402
REMARK  159  A    between atoms: _401  and  _404
REMARK  160  A    between atoms: _404  and  _405
REMARK  161  A    between atoms: _405  and  _406
REMARK  162  A    between atoms: _406  and  _407
REMARK  163  A    between atoms: _407  and  _408
REMARK  164  A    between atoms: _412  and  _414
REMARK  165  A    between atoms: _414  and  _415
REMARK  166  A    between atoms: _414  and  _417
REMARK  167  A    between atoms: _417  and  _418
REMARK  168  A    between atoms: _423  and  _425
REMARK  169  A    between atoms: _425  and  _426
REMARK  170  A    between atoms: _428  and  _430
REMARK  171  A    between atoms: _430  and  _431
REMARK  172  A    between atoms: _430  and  _433
REMARK  173  A    between atoms: _433  and  _434
REMARK  174  A    between atoms: _434  and  _435
REMARK  175  A    between atoms: _435  and  _436
REMARK  176  A    between atoms: _436  and  _437
REMARK  177  A    between atoms: _441  and  _443
REMARK  178  A    between atoms: _443  and  _444
REMARK  179  A    between atoms: _443  and  _446
REMARK  180  A    between atoms: _446  and  _447
REMARK  181  A    between atoms: _447  and  _448
REMARK  182  A    between atoms: _448  and  _449
REMARK  183  A    between atoms: _458  and  _460
REMARK  184  A    between atoms: _460  and  _461
REMARK  185  A    between atoms: _460  and  _463
REMARK  186  A    between atoms: _463  and  _464
REMARK  187  A    between atoms: _469  and  _470
REMARK  188  A    between atoms: _472  and  _474
REMARK  189  A    between atoms: _474  and  _475
REMARK  190  A    between atoms: _474  and  _477
REMARK  191  A    between atoms: _477  and  _478
REMARK  192  A    between atoms: _478  and  _479
REMARK  193  A    between atoms: _479  and  _480
REMARK  194  A    between atoms: _480  and  _481
REMARK  195  A    between atoms: _485  and  _487
REMARK  196  A    between atoms: _487  and  _488
REMARK  197  A    between atoms: _487  and  _490
REMARK  198  A    between atoms: _490  and  _491
REMARK  199  A    between atoms: _494  and  _496
REMARK  200  A    between atoms: _496  and  _497
REMARK  201  A    between atoms: _496  and  _499
REMARK  202  A    between atoms: _499  and  _500
REMARK  203  A    between atoms: _500  and  _501
REMARK  204  A    between atoms: _504  and  _506
REMARK  205  A    between atoms: _506  and  _507
REMARK  206  A    between atoms: _510  and  _512
REMARK  207  A    between atoms: _512  and  _513
REMARK  208  A    between atoms: _512  and  _515
REMARK  209  A    between atoms: _515  and  _516
REMARK  210  A    between atoms: _518  and  _520
REMARK  211  A    between atoms: _520  and  _521
REMARK  212  A    between atoms: _523  and  _525
REMARK  213  A    between atoms: _525  and  _526
REMARK  214  A    between atoms: _525  and  _528
REMARK  215  A    between atoms: _528  and  _529
REMARK  216  A    between atoms: _532  and  _534
REMARK  217  A    between atoms: _534  and  _535
REMARK  218  A    between atoms: _537  and  _539
REMARK  219  A    between atoms: _539  and  _540
REMARK  220  A    between atoms: _539  and  _542
REMARK  221  A    between atoms: _542  and  _543
REMARK  222  A    between atoms: _548  and  _550
REMARK  223  A    between atoms: _550  and  _551
REMARK  224  A    between atoms: _550  and  _553
REMARK  225  A    between atoms: _553  and  _554
REMARK  226  A    between atoms: _554  and  _555
REMARK  227  A    between atoms: _562  and  _563
REMARK  228  A    between atoms: _563  and  _579
REMARK  229  A    between atoms: _564  and  _566
REMARK  230  A    between atoms: _566  and  _567
REMARK  231  A    between atoms: _567  and  _568
REMARK  232  A    between atoms: _572  and  _574
REMARK  233  A    between atoms: _574  and  _575
REMARK  234  A    between atoms: _574  and  _582
REMARK  235  A    between atoms: _575  and  _576
REMARK  236  A    between atoms: _576  and  _577
REMARK  237  A    between atoms: _577  and  _578
REMARK  238  A    between atoms: _578  and  _579
REMARK  239  A    between atoms: _584  and  _586
REMARK  240  A    between atoms: _586  and  _587
REMARK  241  A    between atoms: _586  and  _589
REMARK  242  A    between atoms: _589  and  _590
REMARK  243  A    between atoms: _593  and  _595
REMARK  244  A    between atoms: _595  and  _596
REMARK  245  A    between atoms: _598  and  _600
REMARK  246  A    between atoms: _600  and  _601
REMARK  247  A    between atoms: _604  and  _606
REMARK  248  A    between atoms: _606  and  _607
REMARK  249  A    between atoms: _606  and  _609
REMARK  250  A    between atoms: _609  and  _610
REMARK  251  A    between atoms: _615  and  _616
REMARK                            x       y       z     vdW  Elec       q    Type
REMARK                         _______ _______ _______ _____ _____    ______ ____
ROOT
ATOM      1  O   HOH     1      41.466  26.530  38.013  0.00  0.00    +0.000 OA
ENDROOT
TORSDOF 0
REMARK  Name = ../refined-set-2016/3l7d/3l7d_pocket.pdb
REMARK  251 active torsions:
REMARK  status: ('A' for Active; 'I' for Inactive)
REMARK    1  A    between atoms: _1  and  _3
REMARK    2  A    between atoms: _3  and  _4
REMARK    3  A    between atoms: _3  and  _6
REMARK    4  A    between atoms: _6  and  _7
REMARK    5  A    between atoms: _12  and  _13
REMARK    6  A    between atoms: _15  and  _17
REMARK    7  A    between atoms: _17  and  _18
REMARK    8  A    between atoms: _17  and  _20
REMARK    9  A    between atoms: _20  and  _21
REMARK   10  A    between atoms: _24  and  _26
REMARK   11  A    between atoms: _26  and  _27
REMARK   12  A    between atoms: _26  and  _29
REMARK   13  A    between atoms: _29  and  _30
REMARK   14  A    between atoms: _30  and  _31
REMARK   15  A    between atoms: _34  and  _36
REMARK   16  A    between atoms: _36  and  _37
REMARK   17  A    between atoms: _36  and  _39
REMARK   18  A    between atoms: _39  and  _40
REMARK   19  A    between atoms: _45  and  _47
REMARK   20  A    between atoms: _47  and  _48
REMARK   21  A    between atoms: _50  and  _52
REMARK   22  A    between atoms: _52  and  _53
REMARK   23  A    between atoms: _55  and  _57
REMARK   24  A    between atoms: _57  and  _58
REMARK   25  A    between atoms: _57  and  _60
REMARK   26  A    between atoms: _60  and  _61
REMARK   27  A    between atoms: _64  and  _66
REMARK   28  A    between atoms: _66  and  _67
REMARK   29  A    between atoms: _69  and  _71
REMARK   30  A    between atoms: _71  and  _72
REMARK   31  A    between atoms: _71  and  _74
REMARK   32  A    between atoms: _74  and  _75
REMARK   33  A    between atoms: _75  and  _76
REMARK   34  A    between atoms: _76  and  _77
REMARK   35  A    between atoms: _86  and  _88
REMARK   36  A    between atoms: _88  and  _89
REMARK   37  A    between atoms: _88  and  _91
REMARK   38  A    between atoms: _91  and  _92
REMARK   39  A    between atoms: _95  and  _97
REMARK   40  A    between atoms: _97  and  _98
REMARK   41  A    between atoms: _101  and  _103
REMARK   42  A    between atoms: _103  and  _104
REMARK   43  A    between atoms: _103  and  _106
REMARK   44  A    between atoms: _106  and  _107
REMARK   45  A    between atoms: _113  and  _115
REMARK   46  A    between atoms: _115  and  _116
REMARK   47  A    between atoms: _115  and  _118
REMARK   48  A    between atoms: _118  and  _119
REMARK   49  A    between atoms: _124  and  _125
REMARK   50  A    between atoms: _128  and  _129
REMARK   51  A    between atoms: _134  and  _136
REMARK   52  A    between atoms: _136  and  _137
REMARK   53  A    between atoms: _136  and  _139
REMARK   54  A    between atoms: _139  and  _140
REMARK   55  A    between atoms: _145  and  _147
REMARK   56  A    between atoms: _147  and  _148
REMARK   57  A    between atoms: _147  and  _150
REMARK   58  A    between atoms: _150  and  _151
REMARK   59  A    between atoms: _154  and  _156
REMARK   60  A    between atoms: _156  and  _157
REMARK   61  A    between atoms: _156  and  _159
REMARK   62  A    between atoms: _159  and  _160
REMARK   63  A    between atoms: _165  and  _167
REMARK   64  A    between atoms: _167  and  _168
REMARK   65  A    between atoms: _167  and  _170
REMARK   66  A    between atoms: _170  and  _171
REMARK   67  A    between atoms: _177  and  _179
REMARK   68  A    between atoms: _179  and  _180
REMARK   69  A    between atoms: _179  and  _182
REMARK   70  A    between atoms: _182  and  _183
REMARK   71  A    between atoms: _189  and  _191
REMARK   72  A    between atoms: _191  and  _192
REMARK   73  A    between atoms: _191  and  _194
REMARK   74  A    between atoms: _194  and  _195
REMARK   75  A    between atoms: _195  and  _196
REMARK   76  A    between atoms: _199  and  _201
REMARK   77  A    between atoms: _201  and  _202
REMARK   78  A    between atoms: _201  and  _204
REMARK   79  A    between atoms: _204  and  _205
REMARK   80  A    between atoms: _205  and  _206
REMARK   81  A    between atoms: _206  and  _207
REMARK   82  A    between atoms: _216  and  _218
REMARK   83  A    between atoms: _218  and  _219
REMARK   84  A    between atoms: _218  and  _221
REMARK   85  A    between atoms: _221  and  _222
REMARK   86  A    between atoms: _222  and  _223
REMARK   87  A    between atoms: _226  and  _228
REMARK   88  A    between atoms: _228  and  _229
REMARK   89  A    between atoms: _228  and  _231
REMARK   90  A    between atoms: _231  and  _232
REMARK   91  A    between atoms: _237  and  _239
REMARK   92  A    between atoms: _239  and  _240
REMARK   93  A    between atoms: _239  and  _242
REMARK   94  A    between atoms: _242  and  _243
REMARK   95  A    between atoms: _246  and  _248
REMARK   96  A    between atoms: _248  and  _249
REMARK   97  A    between atoms: _248  and  _251
REMARK   98  A    between atoms: _251  and  _252
REMARK   99  A    between atoms: _255  and  _257
REMARK  100  A    between atoms: _257  and  _258
REMARK  101  A    between atoms: _257  and  _260
REMARK  102  A    between atoms: _260  and  _261
REMARK  103  A    between atoms: _266  and  _268
REMARK  104  A    between atoms: _268  and  _269
REMARK  105  A    between atoms: _268  and  _271
REMARK  106  A    between atoms: _271  and  _272
REMARK  107  A    between atoms: _275  and  _277
REMARK  108  A    between atoms: _277  and  _278
REMARK  109  A    between atoms: _277  and  _280
REMARK  110  A    between atoms: _280  and  _281
REMARK  111  A    between atoms: _286  and  _288
REMARK  112  A    between atoms: _288  and  _289
REMARK  113  A    between atoms: _288  and  _291
REMARK  114  A    between atoms: _291  and  _292
REMARK  115  A    between atoms: _297  and  _299
REMARK  116  A    between atoms: _299  and  _300
REMARK  117  A    between atoms: _299  and  _302
REMARK  118  A    between atoms: _302  and  _303
REMARK  119  A    between atoms: _306  and  _308
REMARK  120  A    between atoms: _308  and  _309
REMARK  121  A    between atoms: _308  and  _311
REMARK  122  A    between atoms: _314  and  _316
REMARK  123  A    between atoms: _316  and  _317
REMARK  124  A    between atoms: _316  and  _319
REMARK  125  A    between atoms: _319  and  _320
REMARK  126  A    between atoms: _323  and  _325
REMARK  127  A    between atoms: _325  and  _326
REMARK  128  A    between atoms: _325  and  _328
REMARK  129  A    between atoms: _328  and  _329
REMARK  130  A    between atoms: _329  and  _330
REMARK  131  A    between atoms: _333  and  _335
REMARK  132  A    between atoms: _335  and  _336
REMARK  133  A    between atoms: _339  and  _341
REMARK  134  A    between atoms: _341  and  _342
REMARK  135  A    between atoms: _341  and  _344
REMARK  136  A    between atoms: _344  and  _345
REMARK  137  A    between atoms: _348  and  _350
REMARK  138  A    between atoms: _350  and  _351
REMARK  139  A    between atoms: _350  and  _353
REMARK  140  A    between atoms: _353  and  _354
REMARK  141  A    between atoms: _354  and  _355
REMARK  142  A    between atoms: _358  and  _360
REMARK  143  A    between atoms: _360  and  _361
REMARK  144  A    between atoms: _360  and  _363
REMARK  145  A    between atoms: _363  and  _364
REMARK  146  A    between atoms: _369  and  _371
REMARK  147  A    between atoms: _371  and  _372
REMARK  148  A    between atoms: _374  and  _376
REMARK  149  A    between atoms: _376  and  _377
REMARK  150  A    between atoms: _376  and  _379
REMARK  151  A    between atoms: _382  and  _384
REMARK  152  A    between atoms: _384  and  _385
REMARK  153  A    between atoms: _388  and  _390
REMARK  154  A    between atoms: _390  and  _391
REMARK  155  A    between atoms: _390  and  _393
REMARK  156  A    between atoms: _393  and  _394
REMARK  157  A    between atoms: _399  and  _401
REMARK  158  A    between atoms: _401  and  _402
REMARK  159  A    between atoms: _401  and  _404
REMARK  160  A    between atoms: _404  and  _405
REMARK  161  A    between atoms: _405  and  _406
REMARK  162  A    between atoms: _406  and  _407
REMARK  163  A    between atoms: _407  and  _408
REMARK  164  A    between atoms: _412  and  _414
REMARK  165  A    between atoms: _414  and  _415
REMARK  166  A    between atoms: _414  and  _417
REMARK  167  A    between atoms: _417  and  _418
REMARK  168  A    between atoms: _423  and  _425
REMARK  169  A    between atoms: _425  and  _426
REMARK  170  A    between atoms: _428  and  _430
REMARK  171  A    between atoms: _430  and  _431
REMARK  172  A    between atoms: _430  and  _433
REMARK  173  A    between atoms: _433  and  _434
REMARK  174  A    between atoms: _434  and  _435
REMARK  175  A    between atoms: _435  and  _436
REMARK  176  A    between atoms: _436  and  _437
REMARK  177  A    between atoms: _441  and  _443
REMARK  178  A    between atoms: _443  and  _444
REMARK  179  A    between atoms: _443  and  _446
REMARK  180  A    between atoms: _446  and  _447
REMARK  181  A    between atoms: _447  and  _448
REMARK  182  A    between atoms: _448  and  _449
REMARK  183  A    between atoms: _458  and  _460
REMARK  184  A    between atoms: _460  and  _461
REMARK  185  A    between atoms: _460  and  _463
REMARK  186  A    between atoms: _463  and  _464
REMARK  187  A    between atoms: _469  and  _470
REMARK  188  A    between atoms: _472  and  _474
REMARK  189  A    between atoms: _474  and  _475
REMARK  190  A    between atoms: _474  and  _477
REMARK  191  A    between atoms: _477  and  _478
REMARK  192  A    between atoms: _478  and  _479
REMARK  193  A    between atoms: _479  and  _480
REMARK  194  A    between atoms: _480  and  _481
REMARK  195  A    between atoms: _485  and  _487
REMARK  196  A    between atoms: _487  and  _488
REMARK  197  A    between atoms: _487  and  _490
REMARK  198  A    between atoms: _490  and  _491
REMARK  199  A    between atoms: _494  and  _496
REMARK  200  A    between atoms: _496  and  _497
REMARK  201  A    between atoms: _496  and  _499
REMARK  202  A    between atoms: _499  and  _500
REMARK  203  A    between atoms: _500  and  _501
REMARK  204  A    between atoms: _504  and  _506
REMARK  205  A    between atoms: _506  and  _507
REMARK  206  A    between atoms: _510  and  _512
REMARK  207  A    between atoms: _512  and  _513
REMARK  208  A    between atoms: _512  and  _515
REMARK  209  A    between atoms: _515  and  _516
REMARK  210  A    between atoms: _518  and  _520
REMARK  211  A    between atoms: _520  and  _521
REMARK  212  A    between atoms: _523  and  _525
REMARK  213  A    between atoms: _525  and  _526
REMARK  214  A    between atoms: _525  and  _528
REMARK  215  A    between atoms: _528  and  _529
REMARK  216  A    between atoms: _532  and  _534
REMARK  217  A    between atoms: _534  and  _535
REMARK  218  A    between atoms: _537  and  _539
REMARK  219  A    between atoms: _539  and  _540
REMARK  220  A    between atoms: _539  and  _542
REMARK  221  A    between atoms: _542  and  _543
REMARK  222  A    between atoms: _548  and  _550
REMARK  223  A    between atoms: _550  and  _551
REMARK  224  A    between atoms: _550  and  _553
REMARK  225  A    between atoms: _553  and  _554
REMARK  226  A    between atoms: _554  and  _555
REMARK  227  A    between atoms: _562  and  _563
REMARK  228  A    between atoms: _563  and  _579
REMARK  229  A    between atoms: _564  and  _566
REMARK  230  A    between atoms: _566  and  _567
REMARK  231  A    between atoms: _567  and  _568
REMARK  232  A    between atoms: _572  and  _574
REMARK  233  A    between atoms: _574  and  _575
REMARK  234  A    between atoms: _574  and  _582
REMARK  235  A    between atoms: _575  and  _576
REMARK  236  A    between atoms: _576  and  _577
REMARK  237  A    between atoms: _577  and  _578
REMARK  238  A    between atoms: _578  and  _579
REMARK  239  A    between atoms: _584  and  _586
REMARK  240  A    between atoms: _586  and  _587
REMARK  241  A    between atoms: _586  and  _589
REMARK  242  A    between atoms: _589  and  _590
REMARK  243  A    between atoms: _593  and  _595
REMARK  244  A    between atoms: _595  and  _596
REMARK  245  A    between atoms: _598  and  _600
REMARK  246  A    between atoms: _600  and  _601
REMARK  247  A    between atoms: _604  and  _606
REMARK  248  A    between atoms: _606  and  _607
REMARK  249  A    between atoms: _606  and  _609
REMARK  250  A    between atoms: _609  and  _610
REMARK  251  A    between atoms: _615  and  _616
REMARK                            x       y       z     vdW  Elec       q    Type
REMARK                         _______ _______ _______ _____ _____    ______ ____
ROOT
ATOM      1  O   HOH     1      36.924  22.431  18.054  0.00  0.00    +0.000 OA
ENDROOT
TORSDOF 0
REMARK  Name = ../refined-set-2016/3l7d/3l7d_pocket.pdb
REMARK  251 active torsions:
REMARK  status: ('A' for Active; 'I' for Inactive)
REMARK    1  A    between atoms: _1  and  _3
REMARK    2  A    between atoms: _3  and  _4
REMARK    3  A    between atoms: _3  and  _6
REMARK    4  A    between atoms: _6  and  _7
REMARK    5  A    between atoms: _12  and  _13
REMARK    6  A    between atoms: _15  and  _17
REMARK    7  A    between atoms: _17  and  _18
REMARK    8  A    between atoms: _17  and  _20
REMARK    9  A    between atoms: _20  and  _21
REMARK   10  A    between atoms: _24  and  _26
REMARK   11  A    between atoms: _26  and  _27
REMARK   12  A    between atoms: _26  and  _29
REMARK   13  A    between atoms: _29  and  _30
REMARK   14  A    between atoms: _30  and  _31
REMARK   15  A    between atoms: _34  and  _36
REMARK   16  A    between atoms: _36  and  _37
REMARK   17  A    between atoms: _36  and  _39
REMARK   18  A    between atoms: _39  and  _40
REMARK   19  A    between atoms: _45  and  _47
REMARK   20  A    between atoms: _47  and  _48
REMARK   21  A    between atoms: _50  and  _52
REMARK   22  A    between atoms: _52  and  _53
REMARK   23  A    between atoms: _55  and  _57
REMARK   24  A    between atoms: _57  and  _58
REMARK   25  A    between atoms: _57  and  _60
REMARK   26  A    between atoms: _60  and  _61
REMARK   27  A    between atoms: _64  and  _66
REMARK   28  A    between atoms: _66  and  _67
REMARK   29  A    between atoms: _69  and  _71
REMARK   30  A    between atoms: _71  and  _72
REMARK   31  A    between atoms: _71  and  _74
REMARK   32  A    between atoms: _74  and  _75
REMARK   33  A    between atoms: _75  and  _76
REMARK   34  A    between atoms: _76  and  _77
REMARK   35  A    between atoms: _86  and  _88
REMARK   36  A    between atoms: _88  and  _89
REMARK   37  A    between atoms: _88  and  _91
REMARK   38  A    between atoms: _91  and  _92
REMARK   39  A    between atoms: _95  and  _97
REMARK   40  A    between atoms: _97  and  _98
REMARK   41  A    between atoms: _101  and  _103
REMARK   42  A    between atoms: _103  and  _104
REMARK   43  A    between atoms: _103  and  _106
REMARK   44  A    between atoms: _106  and  _107
REMARK   45  A    between atoms: _113  and  _115
REMARK   46  A    between atoms: _115  and  _116
REMARK   47  A    between atoms: _115  and  _118
REMARK   48  A    between atoms: _118  and  _119
REMARK   49  A    between atoms: _124  and  _125
REMARK   50  A    between atoms: _128  and  _129
REMARK   51  A    between atoms: _134  and  _136
REMARK   52  A    between atoms: _136  and  _137
REMARK   53  A    between atoms: _136  and  _139
REMARK   54  A    between atoms: _139  and  _140
REMARK   55  A    between atoms: _145  and  _147
REMARK   56  A    between atoms: _147  and  _148
REMARK   57  A    between atoms: _147  and  _150
REMARK   58  A    between atoms: _150  and  _151
REMARK   59  A    between atoms: _154  and  _156
REMARK   60  A    between atoms: _156  and  _157
REMARK   61  A    between atoms: _156  and  _159
REMARK   62  A    between atoms: _159  and  _160
REMARK   63  A    between atoms: _165  and  _167
REMARK   64  A    between atoms: _167  and  _168
REMARK   65  A    between atoms: _167  and  _170
REMARK   66  A    between atoms: _170  and  _171
REMARK   67  A    between atoms: _177  and  _179
REMARK   68  A    between atoms: _179  and  _180
REMARK   69  A    between atoms: _179  and  _182
REMARK   70  A    between atoms: _182  and  _183
REMARK   71  A    between atoms: _189  and  _191
REMARK   72  A    between atoms: _191  and  _192
REMARK   73  A    between atoms: _191  and  _194
REMARK   74  A    between atoms: _194  and  _195
REMARK   75  A    between atoms: _195  and  _196
REMARK   76  A    between atoms: _199  and  _201
REMARK   77  A    between atoms: _201  and  _202
REMARK   78  A    between atoms: _201  and  _204
REMARK   79  A    between atoms: _204  and  _205
REMARK   80  A    between atoms: _205  and  _206
REMARK   81  A    between atoms: _206  and  _207
REMARK   82  A    between atoms: _216  and  _218
REMARK   83  A    between atoms: _218  and  _219
REMARK   84  A    between atoms: _218  and  _221
REMARK   85  A    between atoms: _221  and  _222
REMARK   86  A    between atoms: _222  and  _223
REMARK   87  A    between atoms: _226  and  _228
REMARK   88  A    between atoms: _228  and  _229
REMARK   89  A    between atoms: _228  and  _231
REMARK   90  A    between atoms: _231  and  _232
REMARK   91  A    between atoms: _237  and  _239
REMARK   92  A    between atoms: _239  and  _240
REMARK   93  A    between atoms: _239  and  _242
REMARK   94  A    between atoms: _242  and  _243
REMARK   95  A    between atoms: _246  and  _248
REMARK   96  A    between atoms: _248  and  _249
REMARK   97  A    between atoms: _248  and  _251
REMARK   98  A    between atoms: _251  and  _252
REMARK   99  A    between atoms: _255  and  _257
REMARK  100  A    between atoms: _257  and  _258
REMARK  101  A    between atoms: _257  and  _260
REMARK  102  A    between atoms: _260  and  _261
REMARK  103  A    between atoms: _266  and  _268
REMARK  104  A    between atoms: _268  and  _269
REMARK  105  A    between atoms: _268  and  _271
REMARK  106  A    between atoms: _271  and  _272
REMARK  107  A    between atoms: _275  and  _277
REMARK  108  A    between atoms: _277  and  _278
REMARK  109  A    between atoms: _277  and  _280
REMARK  110  A    between atoms: _280  and  _281
REMARK  111  A    between atoms: _286  and  _288
REMARK  112  A    between atoms: _288  and  _289
REMARK  113  A    between atoms: _288  and  _291
REMARK  114  A    between atoms: _291  and  _292
REMARK  115  A    between atoms: _297  and  _299
REMARK  116  A    between atoms: _299  and  _300
REMARK  117  A    between atoms: _299  and  _302
REMARK  118  A    between atoms: _302  and  _303
REMARK  119  A    between atoms: _306  and  _308
REMARK  120  A    between atoms: _308  and  _309
REMARK  121  A    between atoms: _308  and  _311
REMARK  122  A    between atoms: _314  and  _316
REMARK  123  A    between atoms: _316  and  _317
REMARK  124  A    between atoms: _316  and  _319
REMARK  125  A    between atoms: _319  and  _320
REMARK  126  A    between atoms: _323  and  _325
REMARK  127  A    between atoms: _325  and  _326
REMARK  128  A    between atoms: _325  and  _328
REMARK  129  A    between atoms: _328  and  _329
REMARK  130  A    between atoms: _329  and  _330
REMARK  131  A    between atoms: _333  and  _335
REMARK  132  A    between atoms: _335  and  _336
REMARK  133  A    between atoms: _339  and  _341
REMARK  134  A    between atoms: _341  and  _342
REMARK  135  A    between atoms: _341  and  _344
REMARK  136  A    between atoms: _344  and  _345
REMARK  137  A    between atoms: _348  and  _350
REMARK  138  A    between atoms: _350  and  _351
REMARK  139  A    between atoms: _350  and  _353
REMARK  140  A    between atoms: _353  and  _354
REMARK  141  A    between atoms: _354  and  _355
REMARK  142  A    between atoms: _358  and  _360
REMARK  143  A    between atoms: _360  and  _361
REMARK  144  A    between atoms: _360  and  _363
REMARK  145  A    between atoms: _363  and  _364
REMARK  146  A    between atoms: _369  and  _371
REMARK  147  A    between atoms: _371  and  _372
REMARK  148  A    between atoms: _374  and  _376
REMARK  149  A    between atoms: _376  and  _377
REMARK  150  A    between atoms: _376  and  _379
REMARK  151  A    between atoms: _382  and  _384
REMARK  152  A    between atoms: _384  and  _385
REMARK  153  A    between atoms: _388  and  _390
REMARK  154  A    between atoms: _390  and  _391
REMARK  155  A    between atoms: _390  and  _393
REMARK  156  A    between atoms: _393  and  _394
REMARK  157  A    between atoms: _399  and  _401
REMARK  158  A    between atoms: _401  and  _402
REMARK  159  A    between atoms: _401  and  _404
REMARK  160  A    between atoms: _404  and  _405
REMARK  161  A    between atoms: _405  and  _406
REMARK  162  A    between atoms: _406  and  _407
REMARK  163  A    between atoms: _407  and  _408
REMARK  164  A    between atoms: _412  and  _414
REMARK  165  A    between atoms: _414  and  _415
REMARK  166  A    between atoms: _414  and  _417
REMARK  167  A    between atoms: _417  and  _418
REMARK  168  A    between atoms: _423  and  _425
REMARK  169  A    between atoms: _425  and  _426
REMARK  170  A    between atoms: _428  and  _430
REMARK  171  A    between atoms: _430  and  _431
REMARK  172  A    between atoms: _430  and  _433
REMARK  173  A    between atoms: _433  and  _434
REMARK  174  A    between atoms: _434  and  _435
REMARK  175  A    between atoms: _435  and  _436
REMARK  176  A    between atoms: _436  and  _437
REMARK  177  A    between atoms: _441  and  _443
REMARK  178  A    between atoms: _443  and  _444
REMARK  179  A    between atoms: _443  and  _446
REMARK  180  A    between atoms: _446  and  _447
REMARK  181  A    between atoms: _447  and  _448
REMARK  182  A    between atoms: _448  and  _449
REMARK  183  A    between atoms: _458  and  _460
REMARK  184  A    between atoms: _460  and  _461
REMARK  185  A    between atoms: _460  and  _463
REMARK  186  A    between atoms: _463  and  _464
REMARK  187  A    between atoms: _469  and  _470
REMARK  188  A    between atoms: _472  and  _474
REMARK  189  A    between atoms: _474  and  _475
REMARK  190  A    between atoms: _474  and  _477
REMARK  191  A    between atoms: _477  and  _478
REMARK  192  A    between atoms: _478  and  _479
REMARK  193  A    between atoms: _479  and  _480
REMARK  194  A    between atoms: _480  and  _481
REMARK  195  A    between atoms: _485  and  _487
REMARK  196  A    between atoms: _487  and  _488
REMARK  197  A    between atoms: _487  and  _490
REMARK  198  A    between atoms: _490  and  _491
REMARK  199  A    between atoms: _494  and  _496
REMARK  200  A    between atoms: _496  and  _497
REMARK  201  A    between atoms: _496  and  _499
REMARK  202  A    between atoms: _499  and  _500
REMARK  203  A    between atoms: _500  and  _501
REMARK  204  A    between atoms: _504  and  _506
REMARK  205  A    between atoms: _506  and  _507
REMARK  206  A    between atoms: _510  and  _512
REMARK  207  A    between atoms: _512  and  _513
REMARK  208  A    between atoms: _512  and  _515
REMARK  209  A    between atoms: _515  and  _516
REMARK  210  A    between atoms: _518  and  _520
REMARK  211  A    between atoms: _520  and  _521
REMARK  212  A    between atoms: _523  and  _525
REMARK  213  A    between atoms: _525  and  _526
REMARK  214  A    between atoms: _525  and  _528
REMARK  215  A    between atoms: _528  and  _529
REMARK  216  A    between atoms: _532  and  _534
REMARK  217  A    between atoms: _534  and  _535
REMARK  218  A    between atoms: _537  and  _539
REMARK  219  A    between atoms: _539  and  _540
REMARK  220  A    between atoms: _539  and  _542
REMARK  221  A    between atoms: _542  and  _543
REMARK  222  A    between atoms: _548  and  _550
REMARK  223  A    between atoms: _550  and  _551
REMARK  224  A    between atoms: _550  and  _553
REMARK  225  A    between atoms: _553  and  _554
REMARK  226  A    between atoms: _554  and  _555
REMARK  227  A    between atoms: _562  and  _563
REMARK  228  A    between atoms: _563  and  _579
REMARK  229  A    between atoms: _564  and  _566
REMARK  230  A    between atoms: _566  and  _567
REMARK  231  A    between atoms: _567  and  _568
REMARK  232  A    between atoms: _572  and  _574
REMARK  233  A    between atoms: _574  and  _575
REMARK  234  A    between atoms: _574  and  _582
REMARK  235  A    between atoms: _575  and  _576
REMARK  236  A    between atoms: _576  and  _577
REMARK  237  A    between atoms: _577  and  _578
REMARK  238  A    between atoms: _578  and  _579
REMARK  239  A    between atoms: _584  and  _586
REMARK  240  A    between atoms: _586  and  _587
REMARK  241  A    between atoms: _586  and  _589
REMARK  242  A    between atoms: _589  and  _590
REMARK  243  A    between atoms: _593  and  _595
REMARK  244  A    between atoms: _595  and  _596
REMARK  245  A    between atoms: _598  and  _600
REMARK  246  A    between atoms: _600  and  _601
REMARK  247  A    between atoms: _604  and  _606
REMARK  248  A    between atoms: _606  and  _607
REMARK  249  A    between atoms: _606  and  _609
REMARK  250  A    between atoms: _609  and  _610
REMARK  251  A    between atoms: _615  and  _616
REMARK                            x       y       z     vdW  Elec       q    Type
REMARK                         _______ _______ _______ _____ _____    ______ ____
ROOT
ATOM      1  O   HOH     1      29.735  26.221  18.323  0.00  0.00    +0.000 OA
ENDROOT
TORSDOF 0
REMARK  Name = ../refined-set-2016/3l7d/3l7d_pocket.pdb
REMARK  251 active torsions:
REMARK  status: ('A' for Active; 'I' for Inactive)
REMARK    1  A    between atoms: _1  and  _3
REMARK    2  A    between atoms: _3  and  _4
REMARK    3  A    between atoms: _3  and  _6
REMARK    4  A    between atoms: _6  and  _7
REMARK    5  A    between atoms: _12  and  _13
REMARK    6  A    between atoms: _15  and  _17
REMARK    7  A    between atoms: _17  and  _18
REMARK    8  A    between atoms: _17  and  _20
REMARK    9  A    between atoms: _20  and  _21
REMARK   10  A    between atoms: _24  and  _26
REMARK   11  A    between atoms: _26  and  _27
REMARK   12  A    between atoms: _26  and  _29
REMARK   13  A    between atoms: _29  and  _30
REMARK   14  A    between atoms: _30  and  _31
REMARK   15  A    between atoms: _34  and  _36
REMARK   16  A    between atoms: _36  and  _37
REMARK   17  A    between atoms: _36  and  _39
REMARK   18  A    between atoms: _39  and  _40
REMARK   19  A    between atoms: _45  and  _47
REMARK   20  A    between atoms: _47  and  _48
REMARK   21  A    between atoms: _50  and  _52
REMARK   22  A    between atoms: _52  and  _53
REMARK   23  A    between atoms: _55  and  _57
REMARK   24  A    between atoms: _57  and  _58
REMARK   25  A    between atoms: _57  and  _60
REMARK   26  A    between atoms: _60  and  _61
REMARK   27  A    between atoms: _64  and  _66
REMARK   28  A    between atoms: _66  and  _67
REMARK   29  A    between atoms: _69  and  _71
REMARK   30  A    between atoms: _71  and  _72
REMARK   31  A    between atoms: _71  and  _74
REMARK   32  A    between atoms: _74  and  _75
REMARK   33  A    between atoms: _75  and  _76
REMARK   34  A    between atoms: _76  and  _77
REMARK   35  A    between atoms: _86  and  _88
REMARK   36  A    between atoms: _88  and  _89
REMARK   37  A    between atoms: _88  and  _91
REMARK   38  A    between atoms: _91  and  _92
REMARK   39  A    between atoms: _95  and  _97
REMARK   40  A    between atoms: _97  and  _98
REMARK   41  A    between atoms: _101  and  _103
REMARK   42  A    between atoms: _103  and  _104
REMARK   43  A    between atoms: _103  and  _106
REMARK   44  A    between atoms: _106  and  _107
REMARK   45  A    between atoms: _113  and  _115
REMARK   46  A    between atoms: _115  and  _116
REMARK   47  A    between atoms: _115  and  _118
REMARK   48  A    between atoms: _118  and  _119
REMARK   49  A    between atoms: _124  and  _125
REMARK   50  A    between atoms: _128  and  _129
REMARK   51  A    between atoms: _134  and  _136
REMARK   52  A    between atoms: _136  and  _137
REMARK   53  A    between atoms: _136  and  _139
REMARK   54  A    between atoms: _139  and  _140
REMARK   55  A    between atoms: _145  and  _147
REMARK   56  A    between atoms: _147  and  _148
REMARK   57  A    between atoms: _147  and  _150
REMARK   58  A    between atoms: _150  and  _151
REMARK   59  A    between atoms: _154  and  _156
REMARK   60  A    between atoms: _156  and  _157
REMARK   61  A    between atoms: _156  and  _159
REMARK   62  A    between atoms: _159  and  _160
REMARK   63  A    between atoms: _165  and  _167
REMARK   64  A    between atoms: _167  and  _168
REMARK   65  A    between atoms: _167  and  _170
REMARK   66  A    between atoms: _170  and  _171
REMARK   67  A    between atoms: _177  and  _179
REMARK   68  A    between atoms: _179  and  _180
REMARK   69  A    between atoms: _179  and  _182
REMARK   70  A    between atoms: _182  and  _183
REMARK   71  A    between atoms: _189  and  _191
REMARK   72  A    between atoms: _191  and  _192
REMARK   73  A    between atoms: _191  and  _194
REMARK   74  A    between atoms: _194  and  _195
REMARK   75  A    between atoms: _195  and  _196
REMARK   76  A    between atoms: _199  and  _201
REMARK   77  A    between atoms: _201  and  _202
REMARK   78  A    between atoms: _201  and  _204
REMARK   79  A    between atoms: _204  and  _205
REMARK   80  A    between atoms: _205  and  _206
REMARK   81  A    between atoms: _206  and  _207
REMARK   82  A    between atoms: _216  and  _218
REMARK   83  A    between atoms: _218  and  _219
REMARK   84  A    between atoms: _218  and  _221
REMARK   85  A    between atoms: _221  and  _222
REMARK   86  A    between atoms: _222  and  _223
REMARK   87  A    between atoms: _226  and  _228
REMARK   88  A    between atoms: _228  and  _229
REMARK   89  A    between atoms: _228  and  _231
REMARK   90  A    between atoms: _231  and  _232
REMARK   91  A    between atoms: _237  and  _239
REMARK   92  A    between atoms: _239  and  _240
REMARK   93  A    between atoms: _239  and  _242
REMARK   94  A    between atoms: _242  and  _243
REMARK   95  A    between atoms: _246  and  _248
REMARK   96  A    between atoms: _248  and  _249
REMARK   97  A    between atoms: _248  and  _251
REMARK   98  A    between atoms: _251  and  _252
REMARK   99  A    between atoms: _255  and  _257
REMARK  100  A    between atoms: _257  and  _258
REMARK  101  A    between atoms: _257  and  _260
REMARK  102  A    between atoms: _260  and  _261
REMARK  103  A    between atoms: _266  and  _268
REMARK  104  A    between atoms: _268  and  _269
REMARK  105  A    between atoms: _268  and  _271
REMARK  106  A    between atoms: _271  and  _272
REMARK  107  A    between atoms: _275  and  _277
REMARK  108  A    between atoms: _277  and  _278
REMARK  109  A    between atoms: _277  and  _280
REMARK  110  A    between atoms: _280  and  _281
REMARK  111  A    between atoms: _286  and  _288
REMARK  112  A    between atoms: _288  and  _289
REMARK  113  A    between atoms: _288  and  _291
REMARK  114  A    between atoms: _291  and  _292
REMARK  115  A    between atoms: _297  and  _299
REMARK  116  A    between atoms: _299  and  _300
REMARK  117  A    between atoms: _299  and  _302
REMARK  118  A    between atoms: _302  and  _303
REMARK  119  A    between atoms: _306  and  _308
REMARK  120  A    between atoms: _308  and  _309
REMARK  121  A    between atoms: _308  and  _311
REMARK  122  A    between atoms: _314  and  _316
REMARK  123  A    between atoms: _316  and  _317
REMARK  124  A    between atoms: _316  and  _319
REMARK  125  A    between atoms: _319  and  _320
REMARK  126  A    between atoms: _323  and  _325
REMARK  127  A    between atoms: _325  and  _326
REMARK  128  A    between atoms: _325  and  _328
REMARK  129  A    between atoms: _328  and  _329
REMARK  130  A    between atoms: _329  and  _330
REMARK  131  A    between atoms: _333  and  _335
REMARK  132  A    between atoms: _335  and  _336
REMARK  133  A    between atoms: _339  and  _341
REMARK  134  A    between atoms: _341  and  _342
REMARK  135  A    between atoms: _341  and  _344
REMARK  136  A    between atoms: _344  and  _345
REMARK  137  A    between atoms: _348  and  _350
REMARK  138  A    between atoms: _350  and  _351
REMARK  139  A    between atoms: _350  and  _353
REMARK  140  A    between atoms: _353  and  _354
REMARK  141  A    between atoms: _354  and  _355
REMARK  142  A    between atoms: _358  and  _360
REMARK  143  A    between atoms: _360  and  _361
REMARK  144  A    between atoms: _360  and  _363
REMARK  145  A    between atoms: _363  and  _364
REMARK  146  A    between atoms: _369  and  _371
REMARK  147  A    between atoms: _371  and  _372
REMARK  148  A    between atoms: _374  and  _376
REMARK  149  A    between atoms: _376  and  _377
REMARK  150  A    between atoms: _376  and  _379
REMARK  151  A    between atoms: _382  and  _384
REMARK  152  A    between atoms: _384  and  _385
REMARK  153  A    between atoms: _388  and  _390
REMARK  154  A    between atoms: _390  and  _391
REMARK  155  A    between atoms: _390  and  _393
REMARK  156  A    between atoms: _393  and  _394
REMARK  157  A    between atoms: _399  and  _401
REMARK  158  A    between atoms: _401  and  _402
REMARK  159  A    between atoms: _401  and  _404
REMARK  160  A    between atoms: _404  and  _405
REMARK  161  A    between atoms: _405  and  _406
REMARK  162  A    between atoms: _406  and  _407
REMARK  163  A    between atoms: _407  and  _408
REMARK  164  A    between atoms: _412  and  _414
REMARK  165  A    between atoms: _414  and  _415
REMARK  166  A    between atoms: _414  and  _417
REMARK  167  A    between atoms: _417  and  _418
REMARK  168  A    between atoms: _423  and  _425
REMARK  169  A    between atoms: _425  and  _426
REMARK  170  A    between atoms: _428  and  _430
REMARK  171  A    between atoms: _430  and  _431
REMARK  172  A    between atoms: _430  and  _433
REMARK  173  A    between atoms: _433  and  _434
REMARK  174  A    between atoms: _434  and  _435
REMARK  175  A    between atoms: _435  and  _436
REMARK  176  A    between atoms: _436  and  _437
REMARK  177  A    between atoms: _441  and  _443
REMARK  178  A    between atoms: _443  and  _444
REMARK  179  A    between atoms: _443  and  _446
REMARK  180  A    between atoms: _446  and  _447
REMARK  181  A    between atoms: _447  and  _448
REMARK  182  A    between atoms: _448  and  _449
REMARK  183  A    between atoms: _458  and  _460
REMARK  184  A    between atoms: _460  and  _461
REMARK  185  A    between atoms: _460  and  _463
REMARK  186  A    between atoms: _463  and  _464
REMARK  187  A    between atoms: _469  and  _470
REMARK  188  A    between atoms: _472  and  _474
REMARK  189  A    between atoms: _474  and  _475
REMARK  190  A    between atoms: _474  and  _477
REMARK  191  A    between atoms: _477  and  _478
REMARK  192  A    between atoms: _478  and  _479
REMARK  193  A    between atoms: _479  and  _480
REMARK  194  A    between atoms: _480  and  _481
REMARK  195  A    between atoms: _485  and  _487
REMARK  196  A    between atoms: _487  and  _488
REMARK  197  A    between atoms: _487  and  _490
REMARK  198  A    between atoms: _490  and  _491
REMARK  199  A    between atoms: _494  and  _496
REMARK  200  A    between atoms: _496  and  _497
REMARK  201  A    between atoms: _496  and  _499
REMARK  202  A    between atoms: _499  and  _500
REMARK  203  A    between atoms: _500  and  _501
REMARK  204  A    between atoms: _504  and  _506
REMARK  205  A    between atoms: _506  and  _507
REMARK  206  A    between atoms: _510  and  _512
REMARK  207  A    between atoms: _512  and  _513
REMARK  208  A    between atoms: _512  and  _515
REMARK  209  A    between atoms: _515  and  _516
REMARK  210  A    between atoms: _518  and  _520
REMARK  211  A    between atoms: _520  and  _521
REMARK  212  A    between atoms: _523  and  _525
REMARK  213  A    between atoms: _525  and  _526
REMARK  214  A    between atoms: _525  and  _528
REMARK  215  A    between atoms: _528  and  _529
REMARK  216  A    between atoms: _532  and  _534
REMARK  217  A    between atoms: _534  and  _535
REMARK  218  A    between atoms: _537  and  _539
REMARK  219  A    between atoms: _539  and  _540
REMARK  220  A    between atoms: _539  and  _542
REMARK  221  A    between atoms: _542  and  _543
REMARK  222  A    between atoms: _548  and  _550
REMARK  223  A    between atoms: _550  and  _551
REMARK  224  A    between atoms: _550  and  _553
REMARK  225  A    between atoms: _553  and  _554
REMARK  226  A    between atoms: _554  and  _555
REMARK  227  A    between atoms: _562  and  _563
REMARK  228  A    between atoms: _563  and  _579
REMARK  229  A    between atoms: _564  and  _566
REMARK  230  A    between atoms: _566  and  _567
REMARK  231  A    between atoms: _567  and  _568
REMARK  232  A    between atoms: _572  and  _574
REMARK  233  A    between atoms: _574  and  _575
REMARK  234  A    between atoms: _574  and  _582
REMARK  235  A    between atoms: _575  and  _576
REMARK  236  A    between atoms: _576  and  _577
REMARK  237  A    between atoms: _577  and  _578
REMARK  238  A    between atoms: _578  and  _579
REMARK  239  A    between atoms: _584  and  _586
REMARK  240  A    between atoms: _586  and  _587
REMARK  241  A    between atoms: _586  and  _589
REMARK  242  A    between atoms: _589  and  _590
REMARK  243  A    between atoms: _593  and  _595
REMARK  244  A    between atoms: _595  and  _596
REMARK  245  A    between atoms: _598  and  _600
REMARK  246  A    between atoms: _600  and  _601
REMARK  247  A    between atoms: _604  and  _606
REMARK  248  A    between atoms: _606  and  _607
REMARK  249  A    between atoms: _606  and  _609
REMARK  250  A    between atoms: _609  and  _610
REMARK  251  A    between atoms: _615  and  _616
REMARK                            x       y       z     vdW  Elec       q    Type
REMARK                         _______ _______ _______ _____ _____    ______ ____
ROOT
ATOM      1  O   HOH     1      30.189  23.299  18.685  0.00  0.00    +0.000 OA
ENDROOT
TORSDOF 0
REMARK  Name = ../refined-set-2016/3l7d/3l7d_pocket.pdb
REMARK  251 active torsions:
REMARK  status: ('A' for Active; 'I' for Inactive)
REMARK    1  A    between atoms: _1  and  _3
REMARK    2  A    between atoms: _3  and  _4
REMARK    3  A    between atoms: _3  and  _6
REMARK    4  A    between atoms: _6  and  _7
REMARK    5  A    between atoms: _12  and  _13
REMARK    6  A    between atoms: _15  and  _17
REMARK    7  A    between atoms: _17  and  _18
REMARK    8  A    between atoms: _17  and  _20
REMARK    9  A    between atoms: _20  and  _21
REMARK   10  A    between atoms: _24  and  _26
REMARK   11  A    between atoms: _26  and  _27
REMARK   12  A    between atoms: _26  and  _29
REMARK   13  A    between atoms: _29  and  _30
REMARK   14  A    between atoms: _30  and  _31
REMARK   15  A    between atoms: _34  and  _36
REMARK   16  A    between atoms: _36  and  _37
REMARK   17  A    between atoms: _36  and  _39
REMARK   18  A    between atoms: _39  and  _40
REMARK   19  A    between atoms: _45  and  _47
REMARK   20  A    between atoms: _47  and  _48
REMARK   21  A    between atoms: _50  and  _52
REMARK   22  A    between atoms: _52  and  _53
REMARK   23  A    between atoms: _55  and  _57
REMARK   24  A    between atoms: _57  and  _58
REMARK   25  A    between atoms: _57  and  _60
REMARK   26  A    between atoms: _60  and  _61
REMARK   27  A    between atoms: _64  and  _66
REMARK   28  A    between atoms: _66  and  _67
REMARK   29  A    between atoms: _69  and  _71
REMARK   30  A    between atoms: _71  and  _72
REMARK   31  A    between atoms: _71  and  _74
REMARK   32  A    between atoms: _74  and  _75
REMARK   33  A    between atoms: _75  and  _76
REMARK   34  A    between atoms: _76  and  _77
REMARK   35  A    between atoms: _86  and  _88
REMARK   36  A    between atoms: _88  and  _89
REMARK   37  A    between atoms: _88  and  _91
REMARK   38  A    between atoms: _91  and  _92
REMARK   39  A    between atoms: _95  and  _97
REMARK   40  A    between atoms: _97  and  _98
REMARK   41  A    between atoms: _101  and  _103
REMARK   42  A    between atoms: _103  and  _104
REMARK   43  A    between atoms: _103  and  _106
REMARK   44  A    between atoms: _106  and  _107
REMARK   45  A    between atoms: _113  and  _115
REMARK   46  A    between atoms: _115  and  _116
REMARK   47  A    between atoms: _115  and  _118
REMARK   48  A    between atoms: _118  and  _119
REMARK   49  A    between atoms: _124  and  _125
REMARK   50  A    between atoms: _128  and  _129
REMARK   51  A    between atoms: _134  and  _136
REMARK   52  A    between atoms: _136  and  _137
REMARK   53  A    between atoms: _136  and  _139
REMARK   54  A    between atoms: _139  and  _140
REMARK   55  A    between atoms: _145  and  _147
REMARK   56  A    between atoms: _147  and  _148
REMARK   57  A    between atoms: _147  and  _150
REMARK   58  A    between atoms: _150  and  _151
REMARK   59  A    between atoms: _154  and  _156
REMARK   60  A    between atoms: _156  and  _157
REMARK   61  A    between atoms: _156  and  _159
REMARK   62  A    between atoms: _159  and  _160
REMARK   63  A    between atoms: _165  and  _167
REMARK   64  A    between atoms: _167  and  _168
REMARK   65  A    between atoms: _167  and  _170
REMARK   66  A    between atoms: _170  and  _171
REMARK   67  A    between atoms: _177  and  _179
REMARK   68  A    between atoms: _179  and  _180
REMARK   69  A    between atoms: _179  and  _182
REMARK   70  A    between atoms: _182  and  _183
REMARK   71  A    between atoms: _189  and  _191
REMARK   72  A    between atoms: _191  and  _192
REMARK   73  A    between atoms: _191  and  _194
REMARK   74  A    between atoms: _194  and  _195
REMARK   75  A    between atoms: _195  and  _196
REMARK   76  A    between atoms: _199  and  _201
REMARK   77  A    between atoms: _201  and  _202
REMARK   78  A    between atoms: _201  and  _204
REMARK   79  A    between atoms: _204  and  _205
REMARK   80  A    between atoms: _205  and  _206
REMARK   81  A    between atoms: _206  and  _207
REMARK   82  A    between atoms: _216  and  _218
REMARK   83  A    between atoms: _218  and  _219
REMARK   84  A    between atoms: _218  and  _221
REMARK   85  A    between atoms: _221  and  _222
REMARK   86  A    between atoms: _222  and  _223
REMARK   87  A    between atoms: _226  and  _228
REMARK   88  A    between atoms: _228  and  _229
REMARK   89  A    between atoms: _228  and  _231
REMARK   90  A    between atoms: _231  and  _232
REMARK   91  A    between atoms: _237  and  _239
REMARK   92  A    between atoms: _239  and  _240
REMARK   93  A    between atoms: _239  and  _242
REMARK   94  A    between atoms: _242  and  _243
REMARK   95  A    between atoms: _246  and  _248
REMARK   96  A    between atoms: _248  and  _249
REMARK   97  A    between atoms: _248  and  _251
REMARK   98  A    between atoms: _251  and  _252
REMARK   99  A    between atoms: _255  and  _257
REMARK  100  A    between atoms: _257  and  _258
REMARK  101  A    between atoms: _257  and  _260
REMARK  102  A    between atoms: _260  and  _261
REMARK  103  A    between atoms: _266  and  _268
REMARK  104  A    between atoms: _268  and  _269
REMARK  105  A    between atoms: _268  and  _271
REMARK  106  A    between atoms: _271  and  _272
REMARK  107  A    between atoms: _275  and  _277
REMARK  108  A    between atoms: _277  and  _278
REMARK  109  A    between atoms: _277  and  _280
REMARK  110  A    between atoms: _280  and  _281
REMARK  111  A    between atoms: _286  and  _288
REMARK  112  A    between atoms: _288  and  _289
REMARK  113  A    between atoms: _288  and  _291
REMARK  114  A    between atoms: _291  and  _292
REMARK  115  A    between atoms: _297  and  _299
REMARK  116  A    between atoms: _299  and  _300
REMARK  117  A    between atoms: _299  and  _302
REMARK  118  A    between atoms: _302  and  _303
REMARK  119  A    between atoms: _306  and  _308
REMARK  120  A    between atoms: _308  and  _309
REMARK  121  A    between atoms: _308  and  _311
REMARK  122  A    between atoms: _314  and  _316
REMARK  123  A    between atoms: _316  and  _317
REMARK  124  A    between atoms: _316  and  _319
REMARK  125  A    between atoms: _319  and  _320
REMARK  126  A    between atoms: _323  and  _325
REMARK  127  A    between atoms: _325  and  _326
REMARK  128  A    between atoms: _325  and  _328
REMARK  129  A    between atoms: _328  and  _329
REMARK  130  A    between atoms: _329  and  _330
REMARK  131  A    between atoms: _333  and  _335
REMARK  132  A    between atoms: _335  and  _336
REMARK  133  A    between atoms: _339  and  _341
REMARK  134  A    between atoms: _341  and  _342
REMARK  135  A    between atoms: _341  and  _344
REMARK  136  A    between atoms: _344  and  _345
REMARK  137  A    between atoms: _348  and  _350
REMARK  138  A    between atoms: _350  and  _351
REMARK  139  A    between atoms: _350  and  _353
REMARK  140  A    between atoms: _353  and  _354
REMARK  141  A    between atoms: _354  and  _355
REMARK  142  A    between atoms: _358  and  _360
REMARK  143  A    between atoms: _360  and  _361
REMARK  144  A    between atoms: _360  and  _363
REMARK  145  A    between atoms: _363  and  _364
REMARK  146  A    between atoms: _369  and  _371
REMARK  147  A    between atoms: _371  and  _372
REMARK  148  A    between atoms: _374  and  _376
REMARK  149  A    between atoms: _376  and  _377
REMARK  150  A    between atoms: _376  and  _379
REMARK  151  A    between atoms: _382  and  _384
REMARK  152  A    between atoms: _384  and  _385
REMARK  153  A    between atoms: _388  and  _390
REMARK  154  A    between atoms: _390  and  _391
REMARK  155  A    between atoms: _390  and  _393
REMARK  156  A    between atoms: _393  and  _394
REMARK  157  A    between atoms: _399  and  _401
REMARK  158  A    between atoms: _401  and  _402
REMARK  159  A    between atoms: _401  and  _404
REMARK  160  A    between atoms: _404  and  _405
REMARK  161  A    between atoms: _405  and  _406
REMARK  162  A    between atoms: _406  and  _407
REMARK  163  A    between atoms: _407  and  _408
REMARK  164  A    between atoms: _412  and  _414
REMARK  165  A    between atoms: _414  and  _415
REMARK  166  A    between atoms: _414  and  _417
REMARK  167  A    between atoms: _417  and  _418
REMARK  168  A    between atoms: _423  and  _425
REMARK  169  A    between atoms: _425  and  _426
REMARK  170  A    between atoms: _428  and  _430
REMARK  171  A    between atoms: _430  and  _431
REMARK  172  A    between atoms: _430  and  _433
REMARK  173  A    between atoms: _433  and  _434
REMARK  174  A    between atoms: _434  and  _435
REMARK  175  A    between atoms: _435  and  _436
REMARK  176  A    between atoms: _436  and  _437
REMARK  177  A    between atoms: _441  and  _443
REMARK  178  A    between atoms: _443  and  _444
REMARK  179  A    between atoms: _443  and  _446
REMARK  180  A    between atoms: _446  and  _447
REMARK  181  A    between atoms: _447  and  _448
REMARK  182  A    between atoms: _448  and  _449
REMARK  183  A    between atoms: _458  and  _460
REMARK  184  A    between atoms: _460  and  _461
REMARK  185  A    between atoms: _460  and  _463
REMARK  186  A    between atoms: _463  and  _464
REMARK  187  A    between atoms: _469  and  _470
REMARK  188  A    between atoms: _472  and  _474
REMARK  189  A    between atoms: _474  and  _475
REMARK  190  A    between atoms: _474  and  _477
REMARK  191  A    between atoms: _477  and  _478
REMARK  192  A    between atoms: _478  and  _479
REMARK  193  A    between atoms: _479  and  _480
REMARK  194  A    between atoms: _480  and  _481
REMARK  195  A    between atoms: _485  and  _487
REMARK  196  A    between atoms: _487  and  _488
REMARK  197  A    between atoms: _487  and  _490
REMARK  198  A    between atoms: _490  and  _491
REMARK  199  A    between atoms: _494  and  _496
REMARK  200  A    between atoms: _496  and  _497
REMARK  201  A    between atoms: _496  and  _499
REMARK  202  A    between atoms: _499  and  _500
REMARK  203  A    between atoms: _500  and  _501
REMARK  204  A    between atoms: _504  and  _506
REMARK  205  A    between atoms: _506  and  _507
REMARK  206  A    between atoms: _510  and  _512
REMARK  207  A    between atoms: _512  and  _513
REMARK  208  A    between atoms: _512  and  _515
REMARK  209  A    between atoms: _515  and  _516
REMARK  210  A    between atoms: _518  and  _520
REMARK  211  A    between atoms: _520  and  _521
REMARK  212  A    between atoms: _523  and  _525
REMARK  213  A    between atoms: _525  and  _526
REMARK  214  A    between atoms: _525  and  _528
REMARK  215  A    between atoms: _528  and  _529
REMARK  216  A    between atoms: _532  and  _534
REMARK  217  A    between atoms: _534  and  _535
REMARK  218  A    between atoms: _537  and  _539
REMARK  219  A    between atoms: _539  and  _540
REMARK  220  A    between atoms: _539  and  _542
REMARK  221  A    between atoms: _542  and  _543
REMARK  222  A    between atoms: _548  and  _550
REMARK  223  A    between atoms: _550  and  _551
REMARK  224  A    between atoms: _550  and  _553
REMARK  225  A    between atoms: _553  and  _554
REMARK  226  A    between atoms: _554  and  _555
REMARK  227  A    between atoms: _562  and  _563
REMARK  228  A    between atoms: _563  and  _579
REMARK  229  A    between atoms: _564  and  _566
REMARK  230  A    between atoms: _566  and  _567
REMARK  231  A    between atoms: _567  and  _568
REMARK  232  A    between atoms: _572  and  _574
REMARK  233  A    between atoms: _574  and  _575
REMARK  234  A    between atoms: _574  and  _582
REMARK  235  A    between atoms: _575  and  _576
REMARK  236  A    between atoms: _576  and  _577
REMARK  237  A    between atoms: _577  and  _578
REMARK  238  A    between atoms: _578  and  _579
REMARK  239  A    between atoms: _584  and  _586
REMARK  240  A    between atoms: _586  and  _587
REMARK  241  A    between atoms: _586  and  _589
REMARK  242  A    between atoms: _589  and  _590
REMARK  243  A    between atoms: _593  and  _595
REMARK  244  A    between atoms: _595  and  _596
REMARK  245  A    between atoms: _598  and  _600
REMARK  246  A    between atoms: _600  and  _601
REMARK  247  A    between atoms: _604  and  _606
REMARK  248  A    between atoms: _606  and  _607
REMARK  249  A    between atoms: _606  and  _609
REMARK  250  A    between atoms: _609  and  _610
REMARK  251  A    between atoms: _615  and  _616
REMARK                            x       y       z     vdW  Elec       q    Type
REMARK                         _______ _______ _______ _____ _____    ______ ____
ROOT
ATOM      1  O   HOH     1      27.274  19.243  29.043  0.00  0.00    +0.000 OA
ENDROOT
TORSDOF 0
REMARK  Name = ../refined-set-2016/3l7d/3l7d_pocket.pdb
REMARK  251 active torsions:
REMARK  status: ('A' for Active; 'I' for Inactive)
REMARK    1  A    between atoms: _1  and  _3
REMARK    2  A    between atoms: _3  and  _4
REMARK    3  A    between atoms: _3  and  _6
REMARK    4  A    between atoms: _6  and  _7
REMARK    5  A    between atoms: _12  and  _13
REMARK    6  A    between atoms: _15  and  _17
REMARK    7  A    between atoms: _17  and  _18
REMARK    8  A    between atoms: _17  and  _20
REMARK    9  A    between atoms: _20  and  _21
REMARK   10  A    between atoms: _24  and  _26
REMARK   11  A    between atoms: _26  and  _27
REMARK   12  A    between atoms: _26  and  _29
REMARK   13  A    between atoms: _29  and  _30
REMARK   14  A    between atoms: _30  and  _31
REMARK   15  A    between atoms: _34  and  _36
REMARK   16  A    between atoms: _36  and  _37
REMARK   17  A    between atoms: _36  and  _39
REMARK   18  A    between atoms: _39  and  _40
REMARK   19  A    between atoms: _45  and  _47
REMARK   20  A    between atoms: _47  and  _48
REMARK   21  A    between atoms: _50  and  _52
REMARK   22  A    between atoms: _52  and  _53
REMARK   23  A    between atoms: _55  and  _57
REMARK   24  A    between atoms: _57  and  _58
REMARK   25  A    between atoms: _57  and  _60
REMARK   26  A    between atoms: _60  and  _61
REMARK   27  A    between atoms: _64  and  _66
REMARK   28  A    between atoms: _66  and  _67
REMARK   29  A    between atoms: _69  and  _71
REMARK   30  A    between atoms: _71  and  _72
REMARK   31  A    between atoms: _71  and  _74
REMARK   32  A    between atoms: _74  and  _75
REMARK   33  A    between atoms: _75  and  _76
REMARK   34  A    between atoms: _76  and  _77
REMARK   35  A    between atoms: _86  and  _88
REMARK   36  A    between atoms: _88  and  _89
REMARK   37  A    between atoms: _88  and  _91
REMARK   38  A    between atoms: _91  and  _92
REMARK   39  A    between atoms: _95  and  _97
REMARK   40  A    between atoms: _97  and  _98
REMARK   41  A    between atoms: _101  and  _103
REMARK   42  A    between atoms: _103  and  _104
REMARK   43  A    between atoms: _103  and  _106
REMARK   44  A    between atoms: _106  and  _107
REMARK   45  A    between atoms: _113  and  _115
REMARK   46  A    between atoms: _115  and  _116
REMARK   47  A    between atoms: _115  and  _118
REMARK   48  A    between atoms: _118  and  _119
REMARK   49  A    between atoms: _124  and  _125
REMARK   50  A    between atoms: _128  and  _129
REMARK   51  A    between atoms: _134  and  _136
REMARK   52  A    between atoms: _136  and  _137
REMARK   53  A    between atoms: _136  and  _139
REMARK   54  A    between atoms: _139  and  _140
REMARK   55  A    between atoms: _145  and  _147
REMARK   56  A    between atoms: _147  and  _148
REMARK   57  A    between atoms: _147  and  _150
REMARK   58  A    between atoms: _150  and  _151
REMARK   59  A    between atoms: _154  and  _156
REMARK   60  A    between atoms: _156  and  _157
REMARK   61  A    between atoms: _156  and  _159
REMARK   62  A    between atoms: _159  and  _160
REMARK   63  A    between atoms: _165  and  _167
REMARK   64  A    between atoms: _167  and  _168
REMARK   65  A    between atoms: _167  and  _170
REMARK   66  A    between atoms: _170  and  _171
REMARK   67  A    between atoms: _177  and  _179
REMARK   68  A    between atoms: _179  and  _180
REMARK   69  A    between atoms: _179  and  _182
REMARK   70  A    between atoms: _182  and  _183
REMARK   71  A    between atoms: _189  and  _191
REMARK   72  A    between atoms: _191  and  _192
REMARK   73  A    between atoms: _191  and  _194
REMARK   74  A    between atoms: _194  and  _195
REMARK   75  A    between atoms: _195  and  _196
REMARK   76  A    between atoms: _199  and  _201
REMARK   77  A    between atoms: _201  and  _202
REMARK   78  A    between atoms: _201  and  _204
REMARK   79  A    between atoms: _204  and  _205
REMARK   80  A    between atoms: _205  and  _206
REMARK   81  A    between atoms: _206  and  _207
REMARK   82  A    between atoms: _216  and  _218
REMARK   83  A    between atoms: _218  and  _219
REMARK   84  A    between atoms: _218  and  _221
REMARK   85  A    between atoms: _221  and  _222
REMARK   86  A    between atoms: _222  and  _223
REMARK   87  A    between atoms: _226  and  _228
REMARK   88  A    between atoms: _228  and  _229
REMARK   89  A    between atoms: _228  and  _231
REMARK   90  A    between atoms: _231  and  _232
REMARK   91  A    between atoms: _237  and  _239
REMARK   92  A    between atoms: _239  and  _240
REMARK   93  A    between atoms: _239  and  _242
REMARK   94  A    between atoms: _242  and  _243
REMARK   95  A    between atoms: _246  and  _248
REMARK   96  A    between atoms: _248  and  _249
REMARK   97  A    between atoms: _248  and  _251
REMARK   98  A    between atoms: _251  and  _252
REMARK   99  A    between atoms: _255  and  _257
REMARK  100  A    between atoms: _257  and  _258
REMARK  101  A    between atoms: _257  and  _260
REMARK  102  A    between atoms: _260  and  _261
REMARK  103  A    between atoms: _266  and  _268
REMARK  104  A    between atoms: _268  and  _269
REMARK  105  A    between atoms: _268  and  _271
REMARK  106  A    between atoms: _271  and  _272
REMARK  107  A    between atoms: _275  and  _277
REMARK  108  A    between atoms: _277  and  _278
REMARK  109  A    between atoms: _277  and  _280
REMARK  110  A    between atoms: _280  and  _281
REMARK  111  A    between atoms: _286  and  _288
REMARK  112  A    between atoms: _288  and  _289
REMARK  113  A    between atoms: _288  and  _291
REMARK  114  A    between atoms: _291  and  _292
REMARK  115  A    between atoms: _297  and  _299
REMARK  116  A    between atoms: _299  and  _300
REMARK  117  A    between atoms: _299  and  _302
REMARK  118  A    between atoms: _302  and  _303
REMARK  119  A    between atoms: _306  and  _308
REMARK  120  A    between atoms: _308  and  _309
REMARK  121  A    between atoms: _308  and  _311
REMARK  122  A    between atoms: _314  and  _316
REMARK  123  A    between atoms: _316  and  _317
REMARK  124  A    between atoms: _316  and  _319
REMARK  125  A    between atoms: _319  and  _320
REMARK  126  A    between atoms: _323  and  _325
REMARK  127  A    between atoms: _325  and  _326
REMARK  128  A    between atoms: _325  and  _328
REMARK  129  A    between atoms: _328  and  _329
REMARK  130  A    between atoms: _329  and  _330
REMARK  131  A    between atoms: _333  and  _335
REMARK  132  A    between atoms: _335  and  _336
REMARK  133  A    between atoms: _339  and  _341
REMARK  134  A    between atoms: _341  and  _342
REMARK  135  A    between atoms: _341  and  _344
REMARK  136  A    between atoms: _344  and  _345
REMARK  137  A    between atoms: _348  and  _350
REMARK  138  A    between atoms: _350  and  _351
REMARK  139  A    between atoms: _350  and  _353
REMARK  140  A    between atoms: _353  and  _354
REMARK  141  A    between atoms: _354  and  _355
REMARK  142  A    between atoms: _358  and  _360
REMARK  143  A    between atoms: _360  and  _361
REMARK  144  A    between atoms: _360  and  _363
REMARK  145  A    between atoms: _363  and  _364
REMARK  146  A    between atoms: _369  and  _371
REMARK  147  A    between atoms: _371  and  _372
REMARK  148  A    between atoms: _374  and  _376
REMARK  149  A    between atoms: _376  and  _377
REMARK  150  A    between atoms: _376  and  _379
REMARK  151  A    between atoms: _382  and  _384
REMARK  152  A    between atoms: _384  and  _385
REMARK  153  A    between atoms: _388  and  _390
REMARK  154  A    between atoms: _390  and  _391
REMARK  155  A    between atoms: _390  and  _393
REMARK  156  A    between atoms: _393  and  _394
REMARK  157  A    between atoms: _399  and  _401
REMARK  158  A    between atoms: _401  and  _402
REMARK  159  A    between atoms: _401  and  _404
REMARK  160  A    between atoms: _404  and  _405
REMARK  161  A    between atoms: _405  and  _406
REMARK  162  A    between atoms: _406  and  _407
REMARK  163  A    between atoms: _407  and  _408
REMARK  164  A    between atoms: _412  and  _414
REMARK  165  A    between atoms: _414  and  _415
REMARK  166  A    between atoms: _414  and  _417
REMARK  167  A    between atoms: _417  and  _418
REMARK  168  A    between atoms: _423  and  _425
REMARK  169  A    between atoms: _425  and  _426
REMARK  170  A    between atoms: _428  and  _430
REMARK  171  A    between atoms: _430  and  _431
REMARK  172  A    between atoms: _430  and  _433
REMARK  173  A    between atoms: _433  and  _434
REMARK  174  A    between atoms: _434  and  _435
REMARK  175  A    between atoms: _435  and  _436
REMARK  176  A    between atoms: _436  and  _437
REMARK  177  A    between atoms: _441  and  _443
REMARK  178  A    between atoms: _443  and  _444
REMARK  179  A    between atoms: _443  and  _446
REMARK  180  A    between atoms: _446  and  _447
REMARK  181  A    between atoms: _447  and  _448
REMARK  182  A    between atoms: _448  and  _449
REMARK  183  A    between atoms: _458  and  _460
REMARK  184  A    between atoms: _460  and  _461
REMARK  185  A    between atoms: _460  and  _463
REMARK  186  A    between atoms: _463  and  _464
REMARK  187  A    between atoms: _469  and  _470
REMARK  188  A    between atoms: _472  and  _474
REMARK  189  A    between atoms: _474  and  _475
REMARK  190  A    between atoms: _474  and  _477
REMARK  191  A    between atoms: _477  and  _478
REMARK  192  A    between atoms: _478  and  _479
REMARK  193  A    between atoms: _479  and  _480
REMARK  194  A    between atoms: _480  and  _481
REMARK  195  A    between atoms: _485  and  _487
REMARK  196  A    between atoms: _487  and  _488
REMARK  197  A    between atoms: _487  and  _490
REMARK  198  A    between atoms: _490  and  _491
REMARK  199  A    between atoms: _494  and  _496
REMARK  200  A    between atoms: _496  and  _497
REMARK  201  A    between atoms: _496  and  _499
REMARK  202  A    between atoms: _499  and  _500
REMARK  203  A    between atoms: _500  and  _501
REMARK  204  A    between atoms: _504  and  _506
REMARK  205  A    between atoms: _506  and  _507
REMARK  206  A    between atoms: _510  and  _512
REMARK  207  A    between atoms: _512  and  _513
REMARK  208  A    between atoms: _512  and  _515
REMARK  209  A    between atoms: _515  and  _516
REMARK  210  A    between atoms: _518  and  _520
REMARK  211  A    between atoms: _520  and  _521
REMARK  212  A    between atoms: _523  and  _525
REMARK  213  A    between atoms: _525  and  _526
REMARK  214  A    between atoms: _525  and  _528
REMARK  215  A    between atoms: _528  and  _529
REMARK  216  A    between atoms: _532  and  _534
REMARK  217  A    between atoms: _534  and  _535
REMARK  218  A    between atoms: _537  and  _539
REMARK  219  A    between atoms: _539  and  _540
REMARK  220  A    between atoms: _539  and  _542
REMARK  221  A    between atoms: _542  and  _543
REMARK  222  A    between atoms: _548  and  _550
REMARK  223  A    between atoms: _550  and  _551
REMARK  224  A    between atoms: _550  and  _553
REMARK  225  A    between atoms: _553  and  _554
REMARK  226  A    between atoms: _554  and  _555
REMARK  227  A    between atoms: _562  and  _563
REMARK  228  A    between atoms: _563  and  _579
REMARK  229  A    between atoms: _564  and  _566
REMARK  230  A    between atoms: _566  and  _567
REMARK  231  A    between atoms: _567  and  _568
REMARK  232  A    between atoms: _572  and  _574
REMARK  233  A    between atoms: _574  and  _575
REMARK  234  A    between atoms: _574  and  _582
REMARK  235  A    between atoms: _575  and  _576
REMARK  236  A    between atoms: _576  and  _577
REMARK  237  A    between atoms: _577  and  _578
REMARK  238  A    between atoms: _578  and  _579
REMARK  239  A    between atoms: _584  and  _586
REMARK  240  A    between atoms: _586  and  _587
REMARK  241  A    between atoms: _586  and  _589
REMARK  242  A    between atoms: _589  and  _590
REMARK  243  A    between atoms: _593  and  _595
REMARK  244  A    between atoms: _595  and  _596
REMARK  245  A    between atoms: _598  and  _600
REMARK  246  A    between atoms: _600  and  _601
REMARK  247  A    between atoms: _604  and  _606
REMARK  248  A    between atoms: _606  and  _607
REMARK  249  A    between atoms: _606  and  _609
REMARK  250  A    between atoms: _609  and  _610
REMARK  251  A    between atoms: _615  and  _616
REMARK                            x       y       z     vdW  Elec       q    Type
REMARK                         _______ _______ _______ _____ _____    ______ ____
ROOT
ATOM      1  O   HOH     1      29.459  21.840  26.437  0.00  0.00    +0.000 OA
ENDROOT
TORSDOF 0
REMARK  Name = ../refined-set-2016/3l7d/3l7d_pocket.pdb
REMARK  251 active torsions:
REMARK  status: ('A' for Active; 'I' for Inactive)
REMARK    1  A    between atoms: _1  and  _3
REMARK    2  A    between atoms: _3  and  _4
REMARK    3  A    between atoms: _3  and  _6
REMARK    4  A    between atoms: _6  and  _7
REMARK    5  A    between atoms: _12  and  _13
REMARK    6  A    between atoms: _15  and  _17
REMARK    7  A    between atoms: _17  and  _18
REMARK    8  A    between atoms: _17  and  _20
REMARK    9  A    between atoms: _20  and  _21
REMARK   10  A    between atoms: _24  and  _26
REMARK   11  A    between atoms: _26  and  _27
REMARK   12  A    between atoms: _26  and  _29
REMARK   13  A    between atoms: _29  and  _30
REMARK   14  A    between atoms: _30  and  _31
REMARK   15  A    between atoms: _34  and  _36
REMARK   16  A    between atoms: _36  and  _37
REMARK   17  A    between atoms: _36  and  _39
REMARK   18  A    between atoms: _39  and  _40
REMARK   19  A    between atoms: _45  and  _47
REMARK   20  A    between atoms: _47  and  _48
REMARK   21  A    between atoms: _50  and  _52
REMARK   22  A    between atoms: _52  and  _53
REMARK   23  A    between atoms: _55  and  _57
REMARK   24  A    between atoms: _57  and  _58
REMARK   25  A    between atoms: _57  and  _60
REMARK   26  A    between atoms: _60  and  _61
REMARK   27  A    between atoms: _64  and  _66
REMARK   28  A    between atoms: _66  and  _67
REMARK   29  A    between atoms: _69  and  _71
REMARK   30  A    between atoms: _71  and  _72
REMARK   31  A    between atoms: _71  and  _74
REMARK   32  A    between atoms: _74  and  _75
REMARK   33  A    between atoms: _75  and  _76
REMARK   34  A    between atoms: _76  and  _77
REMARK   35  A    between atoms: _86  and  _88
REMARK   36  A    between atoms: _88  and  _89
REMARK   37  A    between atoms: _88  and  _91
REMARK   38  A    between atoms: _91  and  _92
REMARK   39  A    between atoms: _95  and  _97
REMARK   40  A    between atoms: _97  and  _98
REMARK   41  A    between atoms: _101  and  _103
REMARK   42  A    between atoms: _103  and  _104
REMARK   43  A    between atoms: _103  and  _106
REMARK   44  A    between atoms: _106  and  _107
REMARK   45  A    between atoms: _113  and  _115
REMARK   46  A    between atoms: _115  and  _116
REMARK   47  A    between atoms: _115  and  _118
REMARK   48  A    between atoms: _118  and  _119
REMARK   49  A    between atoms: _124  and  _125
REMARK   50  A    between atoms: _128  and  _129
REMARK   51  A    between atoms: _134  and  _136
REMARK   52  A    between atoms: _136  and  _137
REMARK   53  A    between atoms: _136  and  _139
REMARK   54  A    between atoms: _139  and  _140
REMARK   55  A    between atoms: _145  and  _147
REMARK   56  A    between atoms: _147  and  _148
REMARK   57  A    between atoms: _147  and  _150
REMARK   58  A    between atoms: _150  and  _151
REMARK   59  A    between atoms: _154  and  _156
REMARK   60  A    between atoms: _156  and  _157
REMARK   61  A    between atoms: _156  and  _159
REMARK   62  A    between atoms: _159  and  _160
REMARK   63  A    between atoms: _165  and  _167
REMARK   64  A    between atoms: _167  and  _168
REMARK   65  A    between atoms: _167  and  _170
REMARK   66  A    between atoms: _170  and  _171
REMARK   67  A    between atoms: _177  and  _179
REMARK   68  A    between atoms: _179  and  _180
REMARK   69  A    between atoms: _179  and  _182
REMARK   70  A    between atoms: _182  and  _183
REMARK   71  A    between atoms: _189  and  _191
REMARK   72  A    between atoms: _191  and  _192
REMARK   73  A    between atoms: _191  and  _194
REMARK   74  A    between atoms: _194  and  _195
REMARK   75  A    between atoms: _195  and  _196
REMARK   76  A    between atoms: _199  and  _201
REMARK   77  A    between atoms: _201  and  _202
REMARK   78  A    between atoms: _201  and  _204
REMARK   79  A    between atoms: _204  and  _205
REMARK   80  A    between atoms: _205  and  _206
REMARK   81  A    between atoms: _206  and  _207
REMARK   82  A    between atoms: _216  and  _218
REMARK   83  A    between atoms: _218  and  _219
REMARK   84  A    between atoms: _218  and  _221
REMARK   85  A    between atoms: _221  and  _222
REMARK   86  A    between atoms: _222  and  _223
REMARK   87  A    between atoms: _226  and  _228
REMARK   88  A    between atoms: _228  and  _229
REMARK   89  A    between atoms: _228  and  _231
REMARK   90  A    between atoms: _231  and  _232
REMARK   91  A    between atoms: _237  and  _239
REMARK   92  A    between atoms: _239  and  _240
REMARK   93  A    between atoms: _239  and  _242
REMARK   94  A    between atoms: _242  and  _243
REMARK   95  A    between atoms: _246  and  _248
REMARK   96  A    between atoms: _248  and  _249
REMARK   97  A    between atoms: _248  and  _251
REMARK   98  A    between atoms: _251  and  _252
REMARK   99  A    between atoms: _255  and  _257
REMARK  100  A    between atoms: _257  and  _258
REMARK  101  A    between atoms: _257  and  _260
REMARK  102  A    between atoms: _260  and  _261
REMARK  103  A    between atoms: _266  and  _268
REMARK  104  A    between atoms: _268  and  _269
REMARK  105  A    between atoms: _268  and  _271
REMARK  106  A    between atoms: _271  and  _272
REMARK  107  A    between atoms: _275  and  _277
REMARK  108  A    between atoms: _277  and  _278
REMARK  109  A    between atoms: _277  and  _280
REMARK  110  A    between atoms: _280  and  _281
REMARK  111  A    between atoms: _286  and  _288
REMARK  112  A    between atoms: _288  and  _289
REMARK  113  A    between atoms: _288  and  _291
REMARK  114  A    between atoms: _291  and  _292
REMARK  115  A    between atoms: _297  and  _299
REMARK  116  A    between atoms: _299  and  _300
REMARK  117  A    between atoms: _299  and  _302
REMARK  118  A    between atoms: _302  and  _303
REMARK  119  A    between atoms: _306  and  _308
REMARK  120  A    between atoms: _308  and  _309
REMARK  121  A    between atoms: _308  and  _311
REMARK  122  A    between atoms: _314  and  _316
REMARK  123  A    between atoms: _316  and  _317
REMARK  124  A    between atoms: _316  and  _319
REMARK  125  A    between atoms: _319  and  _320
REMARK  126  A    between atoms: _323  and  _325
REMARK  127  A    between atoms: _325  and  _326
REMARK  128  A    between atoms: _325  and  _328
REMARK  129  A    between atoms: _328  and  _329
REMARK  130  A    between atoms: _329  and  _330
REMARK  131  A    between atoms: _333  and  _335
REMARK  132  A    between atoms: _335  and  _336
REMARK  133  A    between atoms: _339  and  _341
REMARK  134  A    between atoms: _341  and  _342
REMARK  135  A    between atoms: _341  and  _344
REMARK  136  A    between atoms: _344  and  _345
REMARK  137  A    between atoms: _348  and  _350
REMARK  138  A    between atoms: _350  and  _351
REMARK  139  A    between atoms: _350  and  _353
REMARK  140  A    between atoms: _353  and  _354
REMARK  141  A    between atoms: _354  and  _355
REMARK  142  A    between atoms: _358  and  _360
REMARK  143  A    between atoms: _360  and  _361
REMARK  144  A    between atoms: _360  and  _363
REMARK  145  A    between atoms: _363  and  _364
REMARK  146  A    between atoms: _369  and  _371
REMARK  147  A    between atoms: _371  and  _372
REMARK  148  A    between atoms: _374  and  _376
REMARK  149  A    between atoms: _376  and  _377
REMARK  150  A    between atoms: _376  and  _379
REMARK  151  A    between atoms: _382  and  _384
REMARK  152  A    between atoms: _384  and  _385
REMARK  153  A    between atoms: _388  and  _390
REMARK  154  A    between atoms: _390  and  _391
REMARK  155  A    between atoms: _390  and  _393
REMARK  156  A    between atoms: _393  and  _394
REMARK  157  A    between atoms: _399  and  _401
REMARK  158  A    between atoms: _401  and  _402
REMARK  159  A    between atoms: _401  and  _404
REMARK  160  A    between atoms: _404  and  _405
REMARK  161  A    between atoms: _405  and  _406
REMARK  162  A    between atoms: _406  and  _407
REMARK  163  A    between atoms: _407  and  _408
REMARK  164  A    between atoms: _412  and  _414
REMARK  165  A    between atoms: _414  and  _415
REMARK  166  A    between atoms: _414  and  _417
REMARK  167  A    between atoms: _417  and  _418
REMARK  168  A    between atoms: _423  and  _425
REMARK  169  A    between atoms: _425  and  _426
REMARK  170  A    between atoms: _428  and  _430
REMARK  171  A    between atoms: _430  and  _431
REMARK  172  A    between atoms: _430  and  _433
REMARK  173  A    between atoms: _433  and  _434
REMARK  174  A    between atoms: _434  and  _435
REMARK  175  A    between atoms: _435  and  _436
REMARK  176  A    between atoms: _436  and  _437
REMARK  177  A    between atoms: _441  and  _443
REMARK  178  A    between atoms: _443  and  _444
REMARK  179  A    between atoms: _443  and  _446
REMARK  180  A    between atoms: _446  and  _447
REMARK  181  A    between atoms: _447  and  _448
REMARK  182  A    between atoms: _448  and  _449
REMARK  183  A    between atoms: _458  and  _460
REMARK  184  A    between atoms: _460  and  _461
REMARK  185  A    between atoms: _460  and  _463
REMARK  186  A    between atoms: _463  and  _464
REMARK  187  A    between atoms: _469  and  _470
REMARK  188  A    between atoms: _472  and  _474
REMARK  189  A    between atoms: _474  and  _475
REMARK  190  A    between atoms: _474  and  _477
REMARK  191  A    between atoms: _477  and  _478
REMARK  192  A    between atoms: _478  and  _479
REMARK  193  A    between atoms: _479  and  _480
REMARK  194  A    between atoms: _480  and  _481
REMARK  195  A    between atoms: _485  and  _487
REMARK  196  A    between atoms: _487  and  _488
REMARK  197  A    between atoms: _487  and  _490
REMARK  198  A    between atoms: _490  and  _491
REMARK  199  A    between atoms: _494  and  _496
REMARK  200  A    between atoms: _496  and  _497
REMARK  201  A    between atoms: _496  and  _499
REMARK  202  A    between atoms: _499  and  _500
REMARK  203  A    between atoms: _500  and  _501
REMARK  204  A    between atoms: _504  and  _506
REMARK  205  A    between atoms: _506  and  _507
REMARK  206  A    between atoms: _510  and  _512
REMARK  207  A    between atoms: _512  and  _513
REMARK  208  A    between atoms: _512  and  _515
REMARK  209  A    between atoms: _515  and  _516
REMARK  210  A    between atoms: _518  and  _520
REMARK  211  A    between atoms: _520  and  _521
REMARK  212  A    between atoms: _523  and  _525
REMARK  213  A    between atoms: _525  and  _526
REMARK  214  A    between atoms: _525  and  _528
REMARK  215  A    between atoms: _528  and  _529
REMARK  216  A    between atoms: _532  and  _534
REMARK  217  A    between atoms: _534  and  _535
REMARK  218  A    between atoms: _537  and  _539
REMARK  219  A    between atoms: _539  and  _540
REMARK  220  A    between atoms: _539  and  _542
REMARK  221  A    between atoms: _542  and  _543
REMARK  222  A    between atoms: _548  and  _550
REMARK  223  A    between atoms: _550  and  _551
REMARK  224  A    between atoms: _550  and  _553
REMARK  225  A    between atoms: _553  and  _554
REMARK  226  A    between atoms: _554  and  _555
REMARK  227  A    between atoms: _562  and  _563
REMARK  228  A    between atoms: _563  and  _579
REMARK  229  A    between atoms: _564  and  _566
REMARK  230  A    between atoms: _566  and  _567
REMARK  231  A    between atoms: _567  and  _568
REMARK  232  A    between atoms: _572  and  _574
REMARK  233  A    between atoms: _574  and  _575
REMARK  234  A    between atoms: _574  and  _582
REMARK  235  A    between atoms: _575  and  _576
REMARK  236  A    between atoms: _576  and  _577
REMARK  237  A    between atoms: _577  and  _578
REMARK  238  A    between atoms: _578  and  _579
REMARK  239  A    between atoms: _584  and  _586
REMARK  240  A    between atoms: _586  and  _587
REMARK  241  A    between atoms: _586  and  _589
REMARK  242  A    between atoms: _589  and  _590
REMARK  243  A    between atoms: _593  and  _595
REMARK  244  A    between atoms: _595  and  _596
REMARK  245  A    between atoms: _598  and  _600
REMARK  246  A    between atoms: _600  and  _601
REMARK  247  A    between atoms: _604  and  _606
REMARK  248  A    between atoms: _606  and  _607
REMARK  249  A    between atoms: _606  and  _609
REMARK  250  A    between atoms: _609  and  _610
REMARK  251  A    between atoms: _615  and  _616
REMARK                            x       y       z     vdW  Elec       q    Type
REMARK                         _______ _______ _______ _____ _____    ______ ____
ROOT
ATOM      1  O   HOH     1      35.981  24.467  37.814  0.00  0.00    +0.000 OA
ENDROOT
TORSDOF 0
REMARK  Name = ../refined-set-2016/3l7d/3l7d_pocket.pdb
REMARK  251 active torsions:
REMARK  status: ('A' for Active; 'I' for Inactive)
REMARK    1  A    between atoms: _1  and  _3
REMARK    2  A    between atoms: _3  and  _4
REMARK    3  A    between atoms: _3  and  _6
REMARK    4  A    between atoms: _6  and  _7
REMARK    5  A    between atoms: _12  and  _13
REMARK    6  A    between atoms: _15  and  _17
REMARK    7  A    between atoms: _17  and  _18
REMARK    8  A    between atoms: _17  and  _20
REMARK    9  A    between atoms: _20  and  _21
REMARK   10  A    between atoms: _24  and  _26
REMARK   11  A    between atoms: _26  and  _27
REMARK   12  A    between atoms: _26  and  _29
REMARK   13  A    between atoms: _29  and  _30
REMARK   14  A    between atoms: _30  and  _31
REMARK   15  A    between atoms: _34  and  _36
REMARK   16  A    between atoms: _36  and  _37
REMARK   17  A    between atoms: _36  and  _39
REMARK   18  A    between atoms: _39  and  _40
REMARK   19  A    between atoms: _45  and  _47
REMARK   20  A    between atoms: _47  and  _48
REMARK   21  A    between atoms: _50  and  _52
REMARK   22  A    between atoms: _52  and  _53
REMARK   23  A    between atoms: _55  and  _57
REMARK   24  A    between atoms: _57  and  _58
REMARK   25  A    between atoms: _57  and  _60
REMARK   26  A    between atoms: _60  and  _61
REMARK   27  A    between atoms: _64  and  _66
REMARK   28  A    between atoms: _66  and  _67
REMARK   29  A    between atoms: _69  and  _71
REMARK   30  A    between atoms: _71  and  _72
REMARK   31  A    between atoms: _71  and  _74
REMARK   32  A    between atoms: _74  and  _75
REMARK   33  A    between atoms: _75  and  _76
REMARK   34  A    between atoms: _76  and  _77
REMARK   35  A    between atoms: _86  and  _88
REMARK   36  A    between atoms: _88  and  _89
REMARK   37  A    between atoms: _88  and  _91
REMARK   38  A    between atoms: _91  and  _92
REMARK   39  A    between atoms: _95  and  _97
REMARK   40  A    between atoms: _97  and  _98
REMARK   41  A    between atoms: _101  and  _103
REMARK   42  A    between atoms: _103  and  _104
REMARK   43  A    between atoms: _103  and  _106
REMARK   44  A    between atoms: _106  and  _107
REMARK   45  A    between atoms: _113  and  _115
REMARK   46  A    between atoms: _115  and  _116
REMARK   47  A    between atoms: _115  and  _118
REMARK   48  A    between atoms: _118  and  _119
REMARK   49  A    between atoms: _124  and  _125
REMARK   50  A    between atoms: _128  and  _129
REMARK   51  A    between atoms: _134  and  _136
REMARK   52  A    between atoms: _136  and  _137
REMARK   53  A    between atoms: _136  and  _139
REMARK   54  A    between atoms: _139  and  _140
REMARK   55  A    between atoms: _145  and  _147
REMARK   56  A    between atoms: _147  and  _148
REMARK   57  A    between atoms: _147  and  _150
REMARK   58  A    between atoms: _150  and  _151
REMARK   59  A    between atoms: _154  and  _156
REMARK   60  A    between atoms: _156  and  _157
REMARK   61  A    between atoms: _156  and  _159
REMARK   62  A    between atoms: _159  and  _160
REMARK   63  A    between atoms: _165  and  _167
REMARK   64  A    between atoms: _167  and  _168
REMARK   65  A    between atoms: _167  and  _170
REMARK   66  A    between atoms: _170  and  _171
REMARK   67  A    between atoms: _177  and  _179
REMARK   68  A    between atoms: _179  and  _180
REMARK   69  A    between atoms: _179  and  _182
REMARK   70  A    between atoms: _182  and  _183
REMARK   71  A    between atoms: _189  and  _191
REMARK   72  A    between atoms: _191  and  _192
REMARK   73  A    between atoms: _191  and  _194
REMARK   74  A    between atoms: _194  and  _195
REMARK   75  A    between atoms: _195  and  _196
REMARK   76  A    between atoms: _199  and  _201
REMARK   77  A    between atoms: _201  and  _202
REMARK   78  A    between atoms: _201  and  _204
REMARK   79  A    between atoms: _204  and  _205
REMARK   80  A    between atoms: _205  and  _206
REMARK   81  A    between atoms: _206  and  _207
REMARK   82  A    between atoms: _216  and  _218
REMARK   83  A    between atoms: _218  and  _219
REMARK   84  A    between atoms: _218  and  _221
REMARK   85  A    between atoms: _221  and  _222
REMARK   86  A    between atoms: _222  and  _223
REMARK   87  A    between atoms: _226  and  _228
REMARK   88  A    between atoms: _228  and  _229
REMARK   89  A    between atoms: _228  and  _231
REMARK   90  A    between atoms: _231  and  _232
REMARK   91  A    between atoms: _237  and  _239
REMARK   92  A    between atoms: _239  and  _240
REMARK   93  A    between atoms: _239  and  _242
REMARK   94  A    between atoms: _242  and  _243
REMARK   95  A    between atoms: _246  and  _248
REMARK   96  A    between atoms: _248  and  _249
REMARK   97  A    between atoms: _248  and  _251
REMARK   98  A    between atoms: _251  and  _252
REMARK   99  A    between atoms: _255  and  _257
REMARK  100  A    between atoms: _257  and  _258
REMARK  101  A    between atoms: _257  and  _260
REMARK  102  A    between atoms: _260  and  _261
REMARK  103  A    between atoms: _266  and  _268
REMARK  104  A    between atoms: _268  and  _269
REMARK  105  A    between atoms: _268  and  _271
REMARK  106  A    between atoms: _271  and  _272
REMARK  107  A    between atoms: _275  and  _277
REMARK  108  A    between atoms: _277  and  _278
REMARK  109  A    between atoms: _277  and  _280
REMARK  110  A    between atoms: _280  and  _281
REMARK  111  A    between atoms: _286  and  _288
REMARK  112  A    between atoms: _288  and  _289
REMARK  113  A    between atoms: _288  and  _291
REMARK  114  A    between atoms: _291  and  _292
REMARK  115  A    between atoms: _297  and  _299
REMARK  116  A    between atoms: _299  and  _300
REMARK  117  A    between atoms: _299  and  _302
REMARK  118  A    between atoms: _302  and  _303
REMARK  119  A    between atoms: _306  and  _308
REMARK  120  A    between atoms: _308  and  _309
REMARK  121  A    between atoms: _308  and  _311
REMARK  122  A    between atoms: _314  and  _316
REMARK  123  A    between atoms: _316  and  _317
REMARK  124  A    between atoms: _316  and  _319
REMARK  125  A    between atoms: _319  and  _320
REMARK  126  A    between atoms: _323  and  _325
REMARK  127  A    between atoms: _325  and  _326
REMARK  128  A    between atoms: _325  and  _328
REMARK  129  A    between atoms: _328  and  _329
REMARK  130  A    between atoms: _329  and  _330
REMARK  131  A    between atoms: _333  and  _335
REMARK  132  A    between atoms: _335  and  _336
REMARK  133  A    between atoms: _339  and  _341
REMARK  134  A    between atoms: _341  and  _342
REMARK  135  A    between atoms: _341  and  _344
REMARK  136  A    between atoms: _344  and  _345
REMARK  137  A    between atoms: _348  and  _350
REMARK  138  A    between atoms: _350  and  _351
REMARK  139  A    between atoms: _350  and  _353
REMARK  140  A    between atoms: _353  and  _354
REMARK  141  A    between atoms: _354  and  _355
REMARK  142  A    between atoms: _358  and  _360
REMARK  143  A    between atoms: _360  and  _361
REMARK  144  A    between atoms: _360  and  _363
REMARK  145  A    between atoms: _363  and  _364
REMARK  146  A    between atoms: _369  and  _371
REMARK  147  A    between atoms: _371  and  _372
REMARK  148  A    between atoms: _374  and  _376
REMARK  149  A    between atoms: _376  and  _377
REMARK  150  A    between atoms: _376  and  _379
REMARK  151  A    between atoms: _382  and  _384
REMARK  152  A    between atoms: _384  and  _385
REMARK  153  A    between atoms: _388  and  _390
REMARK  154  A    between atoms: _390  and  _391
REMARK  155  A    between atoms: _390  and  _393
REMARK  156  A    between atoms: _393  and  _394
REMARK  157  A    between atoms: _399  and  _401
REMARK  158  A    between atoms: _401  and  _402
REMARK  159  A    between atoms: _401  and  _404
REMARK  160  A    between atoms: _404  and  _405
REMARK  161  A    between atoms: _405  and  _406
REMARK  162  A    between atoms: _406  and  _407
REMARK  163  A    between atoms: _407  and  _408
REMARK  164  A    between atoms: _412  and  _414
REMARK  165  A    between atoms: _414  and  _415
REMARK  166  A    between atoms: _414  and  _417
REMARK  167  A    between atoms: _417  and  _418
REMARK  168  A    between atoms: _423  and  _425
REMARK  169  A    between atoms: _425  and  _426
REMARK  170  A    between atoms: _428  and  _430
REMARK  171  A    between atoms: _430  and  _431
REMARK  172  A    between atoms: _430  and  _433
REMARK  173  A    between atoms: _433  and  _434
REMARK  174  A    between atoms: _434  and  _435
REMARK  175  A    between atoms: _435  and  _436
REMARK  176  A    between atoms: _436  and  _437
REMARK  177  A    between atoms: _441  and  _443
REMARK  178  A    between atoms: _443  and  _444
REMARK  179  A    between atoms: _443  and  _446
REMARK  180  A    between atoms: _446  and  _447
REMARK  181  A    between atoms: _447  and  _448
REMARK  182  A    between atoms: _448  and  _449
REMARK  183  A    between atoms: _458  and  _460
REMARK  184  A    between atoms: _460  and  _461
REMARK  185  A    between atoms: _460  and  _463
REMARK  186  A    between atoms: _463  and  _464
REMARK  187  A    between atoms: _469  and  _470
REMARK  188  A    between atoms: _472  and  _474
REMARK  189  A    between atoms: _474  and  _475
REMARK  190  A    between atoms: _474  and  _477
REMARK  191  A    between atoms: _477  and  _478
REMARK  192  A    between atoms: _478  and  _479
REMARK  193  A    between atoms: _479  and  _480
REMARK  194  A    between atoms: _480  and  _481
REMARK  195  A    between atoms: _485  and  _487
REMARK  196  A    between atoms: _487  and  _488
REMARK  197  A    between atoms: _487  and  _490
REMARK  198  A    between atoms: _490  and  _491
REMARK  199  A    between atoms: _494  and  _496
REMARK  200  A    between atoms: _496  and  _497
REMARK  201  A    between atoms: _496  and  _499
REMARK  202  A    between atoms: _499  and  _500
REMARK  203  A    between atoms: _500  and  _501
REMARK  204  A    between atoms: _504  and  _506
REMARK  205  A    between atoms: _506  and  _507
REMARK  206  A    between atoms: _510  and  _512
REMARK  207  A    between atoms: _512  and  _513
REMARK  208  A    between atoms: _512  and  _515
REMARK  209  A    between atoms: _515  and  _516
REMARK  210  A    between atoms: _518  and  _520
REMARK  211  A    between atoms: _520  and  _521
REMARK  212  A    between atoms: _523  and  _525
REMARK  213  A    between atoms: _525  and  _526
REMARK  214  A    between atoms: _525  and  _528
REMARK  215  A    between atoms: _528  and  _529
REMARK  216  A    between atoms: _532  and  _534
REMARK  217  A    between atoms: _534  and  _535
REMARK  218  A    between atoms: _537  and  _539
REMARK  219  A    between atoms: _539  and  _540
REMARK  220  A    between atoms: _539  and  _542
REMARK  221  A    between atoms: _542  and  _543
REMARK  222  A    between atoms: _548  and  _550
REMARK  223  A    between atoms: _550  and  _551
REMARK  224  A    between atoms: _550  and  _553
REMARK  225  A    between atoms: _553  and  _554
REMARK  226  A    between atoms: _554  and  _555
REMARK  227  A    between atoms: _562  and  _563
REMARK  228  A    between atoms: _563  and  _579
REMARK  229  A    between atoms: _564  and  _566
REMARK  230  A    between atoms: _566  and  _567
REMARK  231  A    between atoms: _567  and  _568
REMARK  232  A    between atoms: _572  and  _574
REMARK  233  A    between atoms: _574  and  _575
REMARK  234  A    between atoms: _574  and  _582
REMARK  235  A    between atoms: _575  and  _576
REMARK  236  A    between atoms: _576  and  _577
REMARK  237  A    between atoms: _577  and  _578
REMARK  238  A    between atoms: _578  and  _579
REMARK  239  A    between atoms: _584  and  _586
REMARK  240  A    between atoms: _586  and  _587
REMARK  241  A    between atoms: _586  and  _589
REMARK  242  A    between atoms: _589  and  _590
REMARK  243  A    between atoms: _593  and  _595
REMARK  244  A    between atoms: _595  and  _596
REMARK  245  A    between atoms: _598  and  _600
REMARK  246  A    between atoms: _600  and  _601
REMARK  247  A    between atoms: _604  and  _606
REMARK  248  A    between atoms: _606  and  _607
REMARK  249  A    between atoms: _606  and  _609
REMARK  250  A    between atoms: _609  and  _610
REMARK  251  A    between atoms: _615  and  _616
REMARK                            x       y       z     vdW  Elec       q    Type
REMARK                         _______ _______ _______ _____ _____    ______ ____
ROOT
ATOM      1  O   HOH     1      41.382  29.389  38.402  0.00  0.00    +0.000 OA
ENDROOT
TORSDOF 0
REMARK  Name = ../refined-set-2016/3l7d/3l7d_pocket.pdb
REMARK  251 active torsions:
REMARK  status: ('A' for Active; 'I' for Inactive)
REMARK    1  A    between atoms: _1  and  _3
REMARK    2  A    between atoms: _3  and  _4
REMARK    3  A    between atoms: _3  and  _6
REMARK    4  A    between atoms: _6  and  _7
REMARK    5  A    between atoms: _12  and  _13
REMARK    6  A    between atoms: _15  and  _17
REMARK    7  A    between atoms: _17  and  _18
REMARK    8  A    between atoms: _17  and  _20
REMARK    9  A    between atoms: _20  and  _21
REMARK   10  A    between atoms: _24  and  _26
REMARK   11  A    between atoms: _26  and  _27
REMARK   12  A    between atoms: _26  and  _29
REMARK   13  A    between atoms: _29  and  _30
REMARK   14  A    between atoms: _30  and  _31
REMARK   15  A    between atoms: _34  and  _36
REMARK   16  A    between atoms: _36  and  _37
REMARK   17  A    between atoms: _36  and  _39
REMARK   18  A    between atoms: _39  and  _40
REMARK   19  A    between atoms: _45  and  _47
REMARK   20  A    between atoms: _47  and  _48
REMARK   21  A    between atoms: _50  and  _52
REMARK   22  A    between atoms: _52  and  _53
REMARK   23  A    between atoms: _55  and  _57
REMARK   24  A    between atoms: _57  and  _58
REMARK   25  A    between atoms: _57  and  _60
REMARK   26  A    between atoms: _60  and  _61
REMARK   27  A    between atoms: _64  and  _66
REMARK   28  A    between atoms: _66  and  _67
REMARK   29  A    between atoms: _69  and  _71
REMARK   30  A    between atoms: _71  and  _72
REMARK   31  A    between atoms: _71  and  _74
REMARK   32  A    between atoms: _74  and  _75
REMARK   33  A    between atoms: _75  and  _76
REMARK   34  A    between atoms: _76  and  _77
REMARK   35  A    between atoms: _86  and  _88
REMARK   36  A    between atoms: _88  and  _89
REMARK   37  A    between atoms: _88  and  _91
REMARK   38  A    between atoms: _91  and  _92
REMARK   39  A    between atoms: _95  and  _97
REMARK   40  A    between atoms: _97  and  _98
REMARK   41  A    between atoms: _101  and  _103
REMARK   42  A    between atoms: _103  and  _104
REMARK   43  A    between atoms: _103  and  _106
REMARK   44  A    between atoms: _106  and  _107
REMARK   45  A    between atoms: _113  and  _115
REMARK   46  A    between atoms: _115  and  _116
REMARK   47  A    between atoms: _115  and  _118
REMARK   48  A    between atoms: _118  and  _119
REMARK   49  A    between atoms: _124  and  _125
REMARK   50  A    between atoms: _128  and  _129
REMARK   51  A    between atoms: _134  and  _136
REMARK   52  A    between atoms: _136  and  _137
REMARK   53  A    between atoms: _136  and  _139
REMARK   54  A    between atoms: _139  and  _140
REMARK   55  A    between atoms: _145  and  _147
REMARK   56  A    between atoms: _147  and  _148
REMARK   57  A    between atoms: _147  and  _150
REMARK   58  A    between atoms: _150  and  _151
REMARK   59  A    between atoms: _154  and  _156
REMARK   60  A    between atoms: _156  and  _157
REMARK   61  A    between atoms: _156  and  _159
REMARK   62  A    between atoms: _159  and  _160
REMARK   63  A    between atoms: _165  and  _167
REMARK   64  A    between atoms: _167  and  _168
REMARK   65  A    between atoms: _167  and  _170
REMARK   66  A    between atoms: _170  and  _171
REMARK   67  A    between atoms: _177  and  _179
REMARK   68  A    between atoms: _179  and  _180
REMARK   69  A    between atoms: _179  and  _182
REMARK   70  A    between atoms: _182  and  _183
REMARK   71  A    between atoms: _189  and  _191
REMARK   72  A    between atoms: _191  and  _192
REMARK   73  A    between atoms: _191  and  _194
REMARK   74  A    between atoms: _194  and  _195
REMARK   75  A    between atoms: _195  and  _196
REMARK   76  A    between atoms: _199  and  _201
REMARK   77  A    between atoms: _201  and  _202
REMARK   78  A    between atoms: _201  and  _204
REMARK   79  A    between atoms: _204  and  _205
REMARK   80  A    between atoms: _205  and  _206
REMARK   81  A    between atoms: _206  and  _207
REMARK   82  A    between atoms: _216  and  _218
REMARK   83  A    between atoms: _218  and  _219
REMARK   84  A    between atoms: _218  and  _221
REMARK   85  A    between atoms: _221  and  _222
REMARK   86  A    between atoms: _222  and  _223
REMARK   87  A    between atoms: _226  and  _228
REMARK   88  A    between atoms: _228  and  _229
REMARK   89  A    between atoms: _228  and  _231
REMARK   90  A    between atoms: _231  and  _232
REMARK   91  A    between atoms: _237  and  _239
REMARK   92  A    between atoms: _239  and  _240
REMARK   93  A    between atoms: _239  and  _242
REMARK   94  A    between atoms: _242  and  _243
REMARK   95  A    between atoms: _246  and  _248
REMARK   96  A    between atoms: _248  and  _249
REMARK   97  A    between atoms: _248  and  _251
REMARK   98  A    between atoms: _251  and  _252
REMARK   99  A    between atoms: _255  and  _257
REMARK  100  A    between atoms: _257  and  _258
REMARK  101  A    between atoms: _257  and  _260
REMARK  102  A    between atoms: _260  and  _261
REMARK  103  A    between atoms: _266  and  _268
REMARK  104  A    between atoms: _268  and  _269
REMARK  105  A    between atoms: _268  and  _271
REMARK  106  A    between atoms: _271  and  _272
REMARK  107  A    between atoms: _275  and  _277
REMARK  108  A    between atoms: _277  and  _278
REMARK  109  A    between atoms: _277  and  _280
REMARK  110  A    between atoms: _280  and  _281
REMARK  111  A    between atoms: _286  and  _288
REMARK  112  A    between atoms: _288  and  _289
REMARK  113  A    between atoms: _288  and  _291
REMARK  114  A    between atoms: _291  and  _292
REMARK  115  A    between atoms: _297  and  _299
REMARK  116  A    between atoms: _299  and  _300
REMARK  117  A    between atoms: _299  and  _302
REMARK  118  A    between atoms: _302  and  _303
REMARK  119  A    between atoms: _306  and  _308
REMARK  120  A    between atoms: _308  and  _309
REMARK  121  A    between atoms: _308  and  _311
REMARK  122  A    between atoms: _314  and  _316
REMARK  123  A    between atoms: _316  and  _317
REMARK  124  A    between atoms: _316  and  _319
REMARK  125  A    between atoms: _319  and  _320
REMARK  126  A    between atoms: _323  and  _325
REMARK  127  A    between atoms: _325  and  _326
REMARK  128  A    between atoms: _325  and  _328
REMARK  129  A    between atoms: _328  and  _329
REMARK  130  A    between atoms: _329  and  _330
REMARK  131  A    between atoms: _333  and  _335
REMARK  132  A    between atoms: _335  and  _336
REMARK  133  A    between atoms: _339  and  _341
REMARK  134  A    between atoms: _341  and  _342
REMARK  135  A    between atoms: _341  and  _344
REMARK  136  A    between atoms: _344  and  _345
REMARK  137  A    between atoms: _348  and  _350
REMARK  138  A    between atoms: _350  and  _351
REMARK  139  A    between atoms: _350  and  _353
REMARK  140  A    between atoms: _353  and  _354
REMARK  141  A    between atoms: _354  and  _355
REMARK  142  A    between atoms: _358  and  _360
REMARK  143  A    between atoms: _360  and  _361
REMARK  144  A    between atoms: _360  and  _363
REMARK  145  A    between atoms: _363  and  _364
REMARK  146  A    between atoms: _369  and  _371
REMARK  147  A    between atoms: _371  and  _372
REMARK  148  A    between atoms: _374  and  _376
REMARK  149  A    between atoms: _376  and  _377
REMARK  150  A    between atoms: _376  and  _379
REMARK  151  A    between atoms: _382  and  _384
REMARK  152  A    between atoms: _384  and  _385
REMARK  153  A    between atoms: _388  and  _390
REMARK  154  A    between atoms: _390  and  _391
REMARK  155  A    between atoms: _390  and  _393
REMARK  156  A    between atoms: _393  and  _394
REMARK  157  A    between atoms: _399  and  _401
REMARK  158  A    between atoms: _401  and  _402
REMARK  159  A    between atoms: _401  and  _404
REMARK  160  A    between atoms: _404  and  _405
REMARK  161  A    between atoms: _405  and  _406
REMARK  162  A    between atoms: _406  and  _407
REMARK  163  A    between atoms: _407  and  _408
REMARK  164  A    between atoms: _412  and  _414
REMARK  165  A    between atoms: _414  and  _415
REMARK  166  A    between atoms: _414  and  _417
REMARK  167  A    between atoms: _417  and  _418
REMARK  168  A    between atoms: _423  and  _425
REMARK  169  A    between atoms: _425  and  _426
REMARK  170  A    between atoms: _428  and  _430
REMARK  171  A    between atoms: _430  and  _431
REMARK  172  A    between atoms: _430  and  _433
REMARK  173  A    between atoms: _433  and  _434
REMARK  174  A    between atoms: _434  and  _435
REMARK  175  A    between atoms: _435  and  _436
REMARK  176  A    between atoms: _436  and  _437
REMARK  177  A    between atoms: _441  and  _443
REMARK  178  A    between atoms: _443  and  _444
REMARK  179  A    between atoms: _443  and  _446
REMARK  180  A    between atoms: _446  and  _447
REMARK  181  A    between atoms: _447  and  _448
REMARK  182  A    between atoms: _448  and  _449
REMARK  183  A    between atoms: _458  and  _460
REMARK  184  A    between atoms: _460  and  _461
REMARK  185  A    between atoms: _460  and  _463
REMARK  186  A    between atoms: _463  and  _464
REMARK  187  A    between atoms: _469  and  _470
REMARK  188  A    between atoms: _472  and  _474
REMARK  189  A    between atoms: _474  and  _475
REMARK  190  A    between atoms: _474  and  _477
REMARK  191  A    between atoms: _477  and  _478
REMARK  192  A    between atoms: _478  and  _479
REMARK  193  A    between atoms: _479  and  _480
REMARK  194  A    between atoms: _480  and  _481
REMARK  195  A    between atoms: _485  and  _487
REMARK  196  A    between atoms: _487  and  _488
REMARK  197  A    between atoms: _487  and  _490
REMARK  198  A    between atoms: _490  and  _491
REMARK  199  A    between atoms: _494  and  _496
REMARK  200  A    between atoms: _496  and  _497
REMARK  201  A    between atoms: _496  and  _499
REMARK  202  A    between atoms: _499  and  _500
REMARK  203  A    between atoms: _500  and  _501
REMARK  204  A    between atoms: _504  and  _506
REMARK  205  A    between atoms: _506  and  _507
REMARK  206  A    between atoms: _510  and  _512
REMARK  207  A    between atoms: _512  and  _513
REMARK  208  A    between atoms: _512  and  _515
REMARK  209  A    between atoms: _515  and  _516
REMARK  210  A    between atoms: _518  and  _520
REMARK  211  A    between atoms: _520  and  _521
REMARK  212  A    between atoms: _523  and  _525
REMARK  213  A    between atoms: _525  and  _526
REMARK  214  A    between atoms: _525  and  _528
REMARK  215  A    between atoms: _528  and  _529
REMARK  216  A    between atoms: _532  and  _534
REMARK  217  A    between atoms: _534  and  _535
REMARK  218  A    between atoms: _537  and  _539
REMARK  219  A    between atoms: _539  and  _540
REMARK  220  A    between atoms: _539  and  _542
REMARK  221  A    between atoms: _542  and  _543
REMARK  222  A    between atoms: _548  and  _550
REMARK  223  A    between atoms: _550  and  _551
REMARK  224  A    between atoms: _550  and  _553
REMARK  225  A    between atoms: _553  and  _554
REMARK  226  A    between atoms: _554  and  _555
REMARK  227  A    between atoms: _562  and  _563
REMARK  228  A    between atoms: _563  and  _579
REMARK  229  A    between atoms: _564  and  _566
REMARK  230  A    between atoms: _566  and  _567
REMARK  231  A    between atoms: _567  and  _568
REMARK  232  A    between atoms: _572  and  _574
REMARK  233  A    between atoms: _574  and  _575
REMARK  234  A    between atoms: _574  and  _582
REMARK  235  A    between atoms: _575  and  _576
REMARK  236  A    between atoms: _576  and  _577
REMARK  237  A    between atoms: _577  and  _578
REMARK  238  A    between atoms: _578  and  _579
REMARK  239  A    between atoms: _584  and  _586
REMARK  240  A    between atoms: _586  and  _587
REMARK  241  A    between atoms: _586  and  _589
REMARK  242  A    between atoms: _589  and  _590
REMARK  243  A    between atoms: _593  and  _595
REMARK  244  A    between atoms: _595  and  _596
REMARK  245  A    between atoms: _598  and  _600
REMARK  246  A    between atoms: _600  and  _601
REMARK  247  A    between atoms: _604  and  _606
REMARK  248  A    between atoms: _606  and  _607
REMARK  249  A    between atoms: _606  and  _609
REMARK  250  A    between atoms: _609  and  _610
REMARK  251  A    between atoms: _615  and  _616
REMARK                            x       y       z     vdW  Elec       q    Type
REMARK                         _______ _______ _______ _____ _____    ______ ____
ROOT
ATOM      1  O   HOH     1      45.939  32.293  32.377  0.00  0.00    +0.000 OA
ENDROOT
TORSDOF 0
REMARK  Name = ../refined-set-2016/3l7d/3l7d_pocket.pdb
REMARK  251 active torsions:
REMARK  status: ('A' for Active; 'I' for Inactive)
REMARK    1  A    between atoms: _1  and  _3
REMARK    2  A    between atoms: _3  and  _4
REMARK    3  A    between atoms: _3  and  _6
REMARK    4  A    between atoms: _6  and  _7
REMARK    5  A    between atoms: _12  and  _13
REMARK    6  A    between atoms: _15  and  _17
REMARK    7  A    between atoms: _17  and  _18
REMARK    8  A    between atoms: _17  and  _20
REMARK    9  A    between atoms: _20  and  _21
REMARK   10  A    between atoms: _24  and  _26
REMARK   11  A    between atoms: _26  and  _27
REMARK   12  A    between atoms: _26  and  _29
REMARK   13  A    between atoms: _29  and  _30
REMARK   14  A    between atoms: _30  and  _31
REMARK   15  A    between atoms: _34  and  _36
REMARK   16  A    between atoms: _36  and  _37
REMARK   17  A    between atoms: _36  and  _39
REMARK   18  A    between atoms: _39  and  _40
REMARK   19  A    between atoms: _45  and  _47
REMARK   20  A    between atoms: _47  and  _48
REMARK   21  A    between atoms: _50  and  _52
REMARK   22  A    between atoms: _52  and  _53
REMARK   23  A    between atoms: _55  and  _57
REMARK   24  A    between atoms: _57  and  _58
REMARK   25  A    between atoms: _57  and  _60
REMARK   26  A    between atoms: _60  and  _61
REMARK   27  A    between atoms: _64  and  _66
REMARK   28  A    between atoms: _66  and  _67
REMARK   29  A    between atoms: _69  and  _71
REMARK   30  A    between atoms: _71  and  _72
REMARK   31  A    between atoms: _71  and  _74
REMARK   32  A    between atoms: _74  and  _75
REMARK   33  A    between atoms: _75  and  _76
REMARK   34  A    between atoms: _76  and  _77
REMARK   35  A    between atoms: _86  and  _88
REMARK   36  A    between atoms: _88  and  _89
REMARK   37  A    between atoms: _88  and  _91
REMARK   38  A    between atoms: _91  and  _92
REMARK   39  A    between atoms: _95  and  _97
REMARK   40  A    between atoms: _97  and  _98
REMARK   41  A    between atoms: _101  and  _103
REMARK   42  A    between atoms: _103  and  _104
REMARK   43  A    between atoms: _103  and  _106
REMARK   44  A    between atoms: _106  and  _107
REMARK   45  A    between atoms: _113  and  _115
REMARK   46  A    between atoms: _115  and  _116
REMARK   47  A    between atoms: _115  and  _118
REMARK   48  A    between atoms: _118  and  _119
REMARK   49  A    between atoms: _124  and  _125
REMARK   50  A    between atoms: _128  and  _129
REMARK   51  A    between atoms: _134  and  _136
REMARK   52  A    between atoms: _136  and  _137
REMARK   53  A    between atoms: _136  and  _139
REMARK   54  A    between atoms: _139  and  _140
REMARK   55  A    between atoms: _145  and  _147
REMARK   56  A    between atoms: _147  and  _148
REMARK   57  A    between atoms: _147  and  _150
REMARK   58  A    between atoms: _150  and  _151
REMARK   59  A    between atoms: _154  and  _156
REMARK   60  A    between atoms: _156  and  _157
REMARK   61  A    between atoms: _156  and  _159
REMARK   62  A    between atoms: _159  and  _160
REMARK   63  A    between atoms: _165  and  _167
REMARK   64  A    between atoms: _167  and  _168
REMARK   65  A    between atoms: _167  and  _170
REMARK   66  A    between atoms: _170  and  _171
REMARK   67  A    between atoms: _177  and  _179
REMARK   68  A    between atoms: _179  and  _180
REMARK   69  A    between atoms: _179  and  _182
REMARK   70  A    between atoms: _182  and  _183
REMARK   71  A    between atoms: _189  and  _191
REMARK   72  A    between atoms: _191  and  _192
REMARK   73  A    between atoms: _191  and  _194
REMARK   74  A    between atoms: _194  and  _195
REMARK   75  A    between atoms: _195  and  _196
REMARK   76  A    between atoms: _199  and  _201
REMARK   77  A    between atoms: _201  and  _202
REMARK   78  A    between atoms: _201  and  _204
REMARK   79  A    between atoms: _204  and  _205
REMARK   80  A    between atoms: _205  and  _206
REMARK   81  A    between atoms: _206  and  _207
REMARK   82  A    between atoms: _216  and  _218
REMARK   83  A    between atoms: _218  and  _219
REMARK   84  A    between atoms: _218  and  _221
REMARK   85  A    between atoms: _221  and  _222
REMARK   86  A    between atoms: _222  and  _223
REMARK   87  A    between atoms: _226  and  _228
REMARK   88  A    between atoms: _228  and  _229
REMARK   89  A    between atoms: _228  and  _231
REMARK   90  A    between atoms: _231  and  _232
REMARK   91  A    between atoms: _237  and  _239
REMARK   92  A    between atoms: _239  and  _240
REMARK   93  A    between atoms: _239  and  _242
REMARK   94  A    between atoms: _242  and  _243
REMARK   95  A    between atoms: _246  and  _248
REMARK   96  A    between atoms: _248  and  _249
REMARK   97  A    between atoms: _248  and  _251
REMARK   98  A    between atoms: _251  and  _252
REMARK   99  A    between atoms: _255  and  _257
REMARK  100  A    between atoms: _257  and  _258
REMARK  101  A    between atoms: _257  and  _260
REMARK  102  A    between atoms: _260  and  _261
REMARK  103  A    between atoms: _266  and  _268
REMARK  104  A    between atoms: _268  and  _269
REMARK  105  A    between atoms: _268  and  _271
REMARK  106  A    between atoms: _271  and  _272
REMARK  107  A    between atoms: _275  and  _277
REMARK  108  A    between atoms: _277  and  _278
REMARK  109  A    between atoms: _277  and  _280
REMARK  110  A    between atoms: _280  and  _281
REMARK  111  A    between atoms: _286  and  _288
REMARK  112  A    between atoms: _288  and  _289
REMARK  113  A    between atoms: _288  and  _291
REMARK  114  A    between atoms: _291  and  _292
REMARK  115  A    between atoms: _297  and  _299
REMARK  116  A    between atoms: _299  and  _300
REMARK  117  A    between atoms: _299  and  _302
REMARK  118  A    between atoms: _302  and  _303
REMARK  119  A    between atoms: _306  and  _308
REMARK  120  A    between atoms: _308  and  _309
REMARK  121  A    between atoms: _308  and  _311
REMARK  122  A    between atoms: _314  and  _316
REMARK  123  A    between atoms: _316  and  _317
REMARK  124  A    between atoms: _316  and  _319
REMARK  125  A    between atoms: _319  and  _320
REMARK  126  A    between atoms: _323  and  _325
REMARK  127  A    between atoms: _325  and  _326
REMARK  128  A    between atoms: _325  and  _328
REMARK  129  A    between atoms: _328  and  _329
REMARK  130  A    between atoms: _329  and  _330
REMARK  131  A    between atoms: _333  and  _335
REMARK  132  A    between atoms: _335  and  _336
REMARK  133  A    between atoms: _339  and  _341
REMARK  134  A    between atoms: _341  and  _342
REMARK  135  A    between atoms: _341  and  _344
REMARK  136  A    between atoms: _344  and  _345
REMARK  137  A    between atoms: _348  and  _350
REMARK  138  A    between atoms: _350  and  _351
REMARK  139  A    between atoms: _350  and  _353
REMARK  140  A    between atoms: _353  and  _354
REMARK  141  A    between atoms: _354  and  _355
REMARK  142  A    between atoms: _358  and  _360
REMARK  143  A    between atoms: _360  and  _361
REMARK  144  A    between atoms: _360  and  _363
REMARK  145  A    between atoms: _363  and  _364
REMARK  146  A    between atoms: _369  and  _371
REMARK  147  A    between atoms: _371  and  _372
REMARK  148  A    between atoms: _374  and  _376
REMARK  149  A    between atoms: _376  and  _377
REMARK  150  A    between atoms: _376  and  _379
REMARK  151  A    between atoms: _382  and  _384
REMARK  152  A    between atoms: _384  and  _385
REMARK  153  A    between atoms: _388  and  _390
REMARK  154  A    between atoms: _390  and  _391
REMARK  155  A    between atoms: _390  and  _393
REMARK  156  A    between atoms: _393  and  _394
REMARK  157  A    between atoms: _399  and  _401
REMARK  158  A    between atoms: _401  and  _402
REMARK  159  A    between atoms: _401  and  _404
REMARK  160  A    between atoms: _404  and  _405
REMARK  161  A    between atoms: _405  and  _406
REMARK  162  A    between atoms: _406  and  _407
REMARK  163  A    between atoms: _407  and  _408
REMARK  164  A    between atoms: _412  and  _414
REMARK  165  A    between atoms: _414  and  _415
REMARK  166  A    between atoms: _414  and  _417
REMARK  167  A    between atoms: _417  and  _418
REMARK  168  A    between atoms: _423  and  _425
REMARK  169  A    between atoms: _425  and  _426
REMARK  170  A    between atoms: _428  and  _430
REMARK  171  A    between atoms: _430  and  _431
REMARK  172  A    between atoms: _430  and  _433
REMARK  173  A    between atoms: _433  and  _434
REMARK  174  A    between atoms: _434  and  _435
REMARK  175  A    between atoms: _435  and  _436
REMARK  176  A    between atoms: _436  and  _437
REMARK  177  A    between atoms: _441  and  _443
REMARK  178  A    between atoms: _443  and  _444
REMARK  179  A    between atoms: _443  and  _446
REMARK  180  A    between atoms: _446  and  _447
REMARK  181  A    between atoms: _447  and  _448
REMARK  182  A    between atoms: _448  and  _449
REMARK  183  A    between atoms: _458  and  _460
REMARK  184  A    between atoms: _460  and  _461
REMARK  185  A    between atoms: _460  and  _463
REMARK  186  A    between atoms: _463  and  _464
REMARK  187  A    between atoms: _469  and  _470
REMARK  188  A    between atoms: _472  and  _474
REMARK  189  A    between atoms: _474  and  _475
REMARK  190  A    between atoms: _474  and  _477
REMARK  191  A    between atoms: _477  and  _478
REMARK  192  A    between atoms: _478  and  _479
REMARK  193  A    between atoms: _479  and  _480
REMARK  194  A    between atoms: _480  and  _481
REMARK  195  A    between atoms: _485  and  _487
REMARK  196  A    between atoms: _487  and  _488
REMARK  197  A    between atoms: _487  and  _490
REMARK  198  A    between atoms: _490  and  _491
REMARK  199  A    between atoms: _494  and  _496
REMARK  200  A    between atoms: _496  and  _497
REMARK  201  A    between atoms: _496  and  _499
REMARK  202  A    between atoms: _499  and  _500
REMARK  203  A    between atoms: _500  and  _501
REMARK  204  A    between atoms: _504  and  _506
REMARK  205  A    between atoms: _506  and  _507
REMARK  206  A    between atoms: _510  and  _512
REMARK  207  A    between atoms: _512  and  _513
REMARK  208  A    between atoms: _512  and  _515
REMARK  209  A    between atoms: _515  and  _516
REMARK  210  A    between atoms: _518  and  _520
REMARK  211  A    between atoms: _520  and  _521
REMARK  212  A    between atoms: _523  and  _525
REMARK  213  A    between atoms: _525  and  _526
REMARK  214  A    between atoms: _525  and  _528
REMARK  215  A    between atoms: _528  and  _529
REMARK  216  A    between atoms: _532  and  _534
REMARK  217  A    between atoms: _534  and  _535
REMARK  218  A    between atoms: _537  and  _539
REMARK  219  A    between atoms: _539  and  _540
REMARK  220  A    between atoms: _539  and  _542
REMARK  221  A    between atoms: _542  and  _543
REMARK  222  A    between atoms: _548  and  _550
REMARK  223  A    between atoms: _550  and  _551
REMARK  224  A    between atoms: _550  and  _553
REMARK  225  A    between atoms: _553  and  _554
REMARK  226  A    between atoms: _554  and  _555
REMARK  227  A    between atoms: _562  and  _563
REMARK  228  A    between atoms: _563  and  _579
REMARK  229  A    between atoms: _564  and  _566
REMARK  230  A    between atoms: _566  and  _567
REMARK  231  A    between atoms: _567  and  _568
REMARK  232  A    between atoms: _572  and  _574
REMARK  233  A    between atoms: _574  and  _575
REMARK  234  A    between atoms: _574  and  _582
REMARK  235  A    between atoms: _575  and  _576
REMARK  236  A    between atoms: _576  and  _577
REMARK  237  A    between atoms: _577  and  _578
REMARK  238  A    between atoms: _578  and  _579
REMARK  239  A    between atoms: _584  and  _586
REMARK  240  A    between atoms: _586  and  _587
REMARK  241  A    between atoms: _586  and  _589
REMARK  242  A    between atoms: _589  and  _590
REMARK  243  A    between atoms: _593  and  _595
REMARK  244  A    between atoms: _595  and  _596
REMARK  245  A    between atoms: _598  and  _600
REMARK  246  A    between atoms: _600  and  _601
REMARK  247  A    between atoms: _604  and  _606
REMARK  248  A    between atoms: _606  and  _607
REMARK  249  A    between atoms: _606  and  _609
REMARK  250  A    between atoms: _609  and  _610
REMARK  251  A    between atoms: _615  and  _616
REMARK                            x       y       z     vdW  Elec       q    Type
REMARK                         _______ _______ _______ _____ _____    ______ ____
ROOT
ATOM      1  O   HOH     1      43.243  20.832  30.483  0.00  0.00    +0.000 OA
ENDROOT
TORSDOF 0
REMARK  Name = ../refined-set-2016/3l7d/3l7d_pocket.pdb
REMARK  251 active torsions:
REMARK  status: ('A' for Active; 'I' for Inactive)
REMARK    1  A    between atoms: _1  and  _3
REMARK    2  A    between atoms: _3  and  _4
REMARK    3  A    between atoms: _3  and  _6
REMARK    4  A    between atoms: _6  and  _7
REMARK    5  A    between atoms: _12  and  _13
REMARK    6  A    between atoms: _15  and  _17
REMARK    7  A    between atoms: _17  and  _18
REMARK    8  A    between atoms: _17  and  _20
REMARK    9  A    between atoms: _20  and  _21
REMARK   10  A    between atoms: _24  and  _26
REMARK   11  A    between atoms: _26  and  _27
REMARK   12  A    between atoms: _26  and  _29
REMARK   13  A    between atoms: _29  and  _30
REMARK   14  A    between atoms: _30  and  _31
REMARK   15  A    between atoms: _34  and  _36
REMARK   16  A    between atoms: _36  and  _37
REMARK   17  A    between atoms: _36  and  _39
REMARK   18  A    between atoms: _39  and  _40
REMARK   19  A    between atoms: _45  and  _47
REMARK   20  A    between atoms: _47  and  _48
REMARK   21  A    between atoms: _50  and  _52
REMARK   22  A    between atoms: _52  and  _53
REMARK   23  A    between atoms: _55  and  _57
REMARK   24  A    between atoms: _57  and  _58
REMARK   25  A    between atoms: _57  and  _60
REMARK   26  A    between atoms: _60  and  _61
REMARK   27  A    between atoms: _64  and  _66
REMARK   28  A    between atoms: _66  and  _67
REMARK   29  A    between atoms: _69  and  _71
REMARK   30  A    between atoms: _71  and  _72
REMARK   31  A    between atoms: _71  and  _74
REMARK   32  A    between atoms: _74  and  _75
REMARK   33  A    between atoms: _75  and  _76
REMARK   34  A    between atoms: _76  and  _77
REMARK   35  A    between atoms: _86  and  _88
REMARK   36  A    between atoms: _88  and  _89
REMARK   37  A    between atoms: _88  and  _91
REMARK   38  A    between atoms: _91  and  _92
REMARK   39  A    between atoms: _95  and  _97
REMARK   40  A    between atoms: _97  and  _98
REMARK   41  A    between atoms: _101  and  _103
REMARK   42  A    between atoms: _103  and  _104
REMARK   43  A    between atoms: _103  and  _106
REMARK   44  A    between atoms: _106  and  _107
REMARK   45  A    between atoms: _113  and  _115
REMARK   46  A    between atoms: _115  and  _116
REMARK   47  A    between atoms: _115  and  _118
REMARK   48  A    between atoms: _118  and  _119
REMARK   49  A    between atoms: _124  and  _125
REMARK   50  A    between atoms: _128  and  _129
REMARK   51  A    between atoms: _134  and  _136
REMARK   52  A    between atoms: _136  and  _137
REMARK   53  A    between atoms: _136  and  _139
REMARK   54  A    between atoms: _139  and  _140
REMARK   55  A    between atoms: _145  and  _147
REMARK   56  A    between atoms: _147  and  _148
REMARK   57  A    between atoms: _147  and  _150
REMARK   58  A    between atoms: _150  and  _151
REMARK   59  A    between atoms: _154  and  _156
REMARK   60  A    between atoms: _156  and  _157
REMARK   61  A    between atoms: _156  and  _159
REMARK   62  A    between atoms: _159  and  _160
REMARK   63  A    between atoms: _165  and  _167
REMARK   64  A    between atoms: _167  and  _168
REMARK   65  A    between atoms: _167  and  _170
REMARK   66  A    between atoms: _170  and  _171
REMARK   67  A    between atoms: _177  and  _179
REMARK   68  A    between atoms: _179  and  _180
REMARK   69  A    between atoms: _179  and  _182
REMARK   70  A    between atoms: _182  and  _183
REMARK   71  A    between atoms: _189  and  _191
REMARK   72  A    between atoms: _191  and  _192
REMARK   73  A    between atoms: _191  and  _194
REMARK   74  A    between atoms: _194  and  _195
REMARK   75  A    between atoms: _195  and  _196
REMARK   76  A    between atoms: _199  and  _201
REMARK   77  A    between atoms: _201  and  _202
REMARK   78  A    between atoms: _201  and  _204
REMARK   79  A    between atoms: _204  and  _205
REMARK   80  A    between atoms: _205  and  _206
REMARK   81  A    between atoms: _206  and  _207
REMARK   82  A    between atoms: _216  and  _218
REMARK   83  A    between atoms: _218  and  _219
REMARK   84  A    between atoms: _218  and  _221
REMARK   85  A    between atoms: _221  and  _222
REMARK   86  A    between atoms: _222  and  _223
REMARK   87  A    between atoms: _226  and  _228
REMARK   88  A    between atoms: _228  and  _229
REMARK   89  A    between atoms: _228  and  _231
REMARK   90  A    between atoms: _231  and  _232
REMARK   91  A    between atoms: _237  and  _239
REMARK   92  A    between atoms: _239  and  _240
REMARK   93  A    between atoms: _239  and  _242
REMARK   94  A    between atoms: _242  and  _243
REMARK   95  A    between atoms: _246  and  _248
REMARK   96  A    between atoms: _248  and  _249
REMARK   97  A    between atoms: _248  and  _251
REMARK   98  A    between atoms: _251  and  _252
REMARK   99  A    between atoms: _255  and  _257
REMARK  100  A    between atoms: _257  and  _258
REMARK  101  A    between atoms: _257  and  _260
REMARK  102  A    between atoms: _260  and  _261
REMARK  103  A    between atoms: _266  and  _268
REMARK  104  A    between atoms: _268  and  _269
REMARK  105  A    between atoms: _268  and  _271
REMARK  106  A    between atoms: _271  and  _272
REMARK  107  A    between atoms: _275  and  _277
REMARK  108  A    between atoms: _277  and  _278
REMARK  109  A    between atoms: _277  and  _280
REMARK  110  A    between atoms: _280  and  _281
REMARK  111  A    between atoms: _286  and  _288
REMARK  112  A    between atoms: _288  and  _289
REMARK  113  A    between atoms: _288  and  _291
REMARK  114  A    between atoms: _291  and  _292
REMARK  115  A    between atoms: _297  and  _299
REMARK  116  A    between atoms: _299  and  _300
REMARK  117  A    between atoms: _299  and  _302
REMARK  118  A    between atoms: _302  and  _303
REMARK  119  A    between atoms: _306  and  _308
REMARK  120  A    between atoms: _308  and  _309
REMARK  121  A    between atoms: _308  and  _311
REMARK  122  A    between atoms: _314  and  _316
REMARK  123  A    between atoms: _316  and  _317
REMARK  124  A    between atoms: _316  and  _319
REMARK  125  A    between atoms: _319  and  _320
REMARK  126  A    between atoms: _323  and  _325
REMARK  127  A    between atoms: _325  and  _326
REMARK  128  A    between atoms: _325  and  _328
REMARK  129  A    between atoms: _328  and  _329
REMARK  130  A    between atoms: _329  and  _330
REMARK  131  A    between atoms: _333  and  _335
REMARK  132  A    between atoms: _335  and  _336
REMARK  133  A    between atoms: _339  and  _341
REMARK  134  A    between atoms: _341  and  _342
REMARK  135  A    between atoms: _341  and  _344
REMARK  136  A    between atoms: _344  and  _345
REMARK  137  A    between atoms: _348  and  _350
REMARK  138  A    between atoms: _350  and  _351
REMARK  139  A    between atoms: _350  and  _353
REMARK  140  A    between atoms: _353  and  _354
REMARK  141  A    between atoms: _354  and  _355
REMARK  142  A    between atoms: _358  and  _360
REMARK  143  A    between atoms: _360  and  _361
REMARK  144  A    between atoms: _360  and  _363
REMARK  145  A    between atoms: _363  and  _364
REMARK  146  A    between atoms: _369  and  _371
REMARK  147  A    between atoms: _371  and  _372
REMARK  148  A    between atoms: _374  and  _376
REMARK  149  A    between atoms: _376  and  _377
REMARK  150  A    between atoms: _376  and  _379
REMARK  151  A    between atoms: _382  and  _384
REMARK  152  A    between atoms: _384  and  _385
REMARK  153  A    between atoms: _388  and  _390
REMARK  154  A    between atoms: _390  and  _391
REMARK  155  A    between atoms: _390  and  _393
REMARK  156  A    between atoms: _393  and  _394
REMARK  157  A    between atoms: _399  and  _401
REMARK  158  A    between atoms: _401  and  _402
REMARK  159  A    between atoms: _401  and  _404
REMARK  160  A    between atoms: _404  and  _405
REMARK  161  A    between atoms: _405  and  _406
REMARK  162  A    between atoms: _406  and  _407
REMARK  163  A    between atoms: _407  and  _408
REMARK  164  A    between atoms: _412  and  _414
REMARK  165  A    between atoms: _414  and  _415
REMARK  166  A    between atoms: _414  and  _417
REMARK  167  A    between atoms: _417  and  _418
REMARK  168  A    between atoms: _423  and  _425
REMARK  169  A    between atoms: _425  and  _426
REMARK  170  A    between atoms: _428  and  _430
REMARK  171  A    between atoms: _430  and  _431
REMARK  172  A    between atoms: _430  and  _433
REMARK  173  A    between atoms: _433  and  _434
REMARK  174  A    between atoms: _434  and  _435
REMARK  175  A    between atoms: _435  and  _436
REMARK  176  A    between atoms: _436  and  _437
REMARK  177  A    between atoms: _441  and  _443
REMARK  178  A    between atoms: _443  and  _444
REMARK  179  A    between atoms: _443  and  _446
REMARK  180  A    between atoms: _446  and  _447
REMARK  181  A    between atoms: _447  and  _448
REMARK  182  A    between atoms: _448  and  _449
REMARK  183  A    between atoms: _458  and  _460
REMARK  184  A    between atoms: _460  and  _461
REMARK  185  A    between atoms: _460  and  _463
REMARK  186  A    between atoms: _463  and  _464
REMARK  187  A    between atoms: _469  and  _470
REMARK  188  A    between atoms: _472  and  _474
REMARK  189  A    between atoms: _474  and  _475
REMARK  190  A    between atoms: _474  and  _477
REMARK  191  A    between atoms: _477  and  _478
REMARK  192  A    between atoms: _478  and  _479
REMARK  193  A    between atoms: _479  and  _480
REMARK  194  A    between atoms: _480  and  _481
REMARK  195  A    between atoms: _485  and  _487
REMARK  196  A    between atoms: _487  and  _488
REMARK  197  A    between atoms: _487  and  _490
REMARK  198  A    between atoms: _490  and  _491
REMARK  199  A    between atoms: _494  and  _496
REMARK  200  A    between atoms: _496  and  _497
REMARK  201  A    between atoms: _496  and  _499
REMARK  202  A    between atoms: _499  and  _500
REMARK  203  A    between atoms: _500  and  _501
REMARK  204  A    between atoms: _504  and  _506
REMARK  205  A    between atoms: _506  and  _507
REMARK  206  A    between atoms: _510  and  _512
REMARK  207  A    between atoms: _512  and  _513
REMARK  208  A    between atoms: _512  and  _515
REMARK  209  A    between atoms: _515  and  _516
REMARK  210  A    between atoms: _518  and  _520
REMARK  211  A    between atoms: _520  and  _521
REMARK  212  A    between atoms: _523  and  _525
REMARK  213  A    between atoms: _525  and  _526
REMARK  214  A    between atoms: _525  and  _528
REMARK  215  A    between atoms: _528  and  _529
REMARK  216  A    between atoms: _532  and  _534
REMARK  217  A    between atoms: _534  and  _535
REMARK  218  A    between atoms: _537  and  _539
REMARK  219  A    between atoms: _539  and  _540
REMARK  220  A    between atoms: _539  and  _542
REMARK  221  A    between atoms: _542  and  _543
REMARK  222  A    between atoms: _548  and  _550
REMARK  223  A    between atoms: _550  and  _551
REMARK  224  A    between atoms: _550  and  _553
REMARK  225  A    between atoms: _553  and  _554
REMARK  226  A    between atoms: _554  and  _555
REMARK  227  A    between atoms: _562  and  _563
REMARK  228  A    between atoms: _563  and  _579
REMARK  229  A    between atoms: _564  and  _566
REMARK  230  A    between atoms: _566  and  _567
REMARK  231  A    between atoms: _567  and  _568
REMARK  232  A    between atoms: _572  and  _574
REMARK  233  A    between atoms: _574  and  _575
REMARK  234  A    between atoms: _574  and  _582
REMARK  235  A    between atoms: _575  and  _576
REMARK  236  A    between atoms: _576  and  _577
REMARK  237  A    between atoms: _577  and  _578
REMARK  238  A    between atoms: _578  and  _579
REMARK  239  A    between atoms: _584  and  _586
REMARK  240  A    between atoms: _586  and  _587
REMARK  241  A    between atoms: _586  and  _589
REMARK  242  A    between atoms: _589  and  _590
REMARK  243  A    between atoms: _593  and  _595
REMARK  244  A    between atoms: _595  and  _596
REMARK  245  A    between atoms: _598  and  _600
REMARK  246  A    between atoms: _600  and  _601
REMARK  247  A    between atoms: _604  and  _606
REMARK  248  A    between atoms: _606  and  _607
REMARK  249  A    between atoms: _606  and  _609
REMARK  250  A    between atoms: _609  and  _610
REMARK  251  A    between atoms: _615  and  _616
REMARK                            x       y       z     vdW  Elec       q    Type
REMARK                         _______ _______ _______ _____ _____    ______ ____
ROOT
ATOM      1  O   HOH     1      32.348  25.850  32.298  0.00  0.00    +0.000 OA
ENDROOT
TORSDOF 0
REMARK  Name = ../refined-set-2016/3l7d/3l7d_pocket.pdb
REMARK  251 active torsions:
REMARK  status: ('A' for Active; 'I' for Inactive)
REMARK    1  A    between atoms: _1  and  _3
REMARK    2  A    between atoms: _3  and  _4
REMARK    3  A    between atoms: _3  and  _6
REMARK    4  A    between atoms: _6  and  _7
REMARK    5  A    between atoms: _12  and  _13
REMARK    6  A    between atoms: _15  and  _17
REMARK    7  A    between atoms: _17  and  _18
REMARK    8  A    between atoms: _17  and  _20
REMARK    9  A    between atoms: _20  and  _21
REMARK   10  A    between atoms: _24  and  _26
REMARK   11  A    between atoms: _26  and  _27
REMARK   12  A    between atoms: _26  and  _29
REMARK   13  A    between atoms: _29  and  _30
REMARK   14  A    between atoms: _30  and  _31
REMARK   15  A    between atoms: _34  and  _36
REMARK   16  A    between atoms: _36  and  _37
REMARK   17  A    between atoms: _36  and  _39
REMARK   18  A    between atoms: _39  and  _40
REMARK   19  A    between atoms: _45  and  _47
REMARK   20  A    between atoms: _47  and  _48
REMARK   21  A    between atoms: _50  and  _52
REMARK   22  A    between atoms: _52  and  _53
REMARK   23  A    between atoms: _55  and  _57
REMARK   24  A    between atoms: _57  and  _58
REMARK   25  A    between atoms: _57  and  _60
REMARK   26  A    between atoms: _60  and  _61
REMARK   27  A    between atoms: _64  and  _66
REMARK   28  A    between atoms: _66  and  _67
REMARK   29  A    between atoms: _69  and  _71
REMARK   30  A    between atoms: _71  and  _72
REMARK   31  A    between atoms: _71  and  _74
REMARK   32  A    between atoms: _74  and  _75
REMARK   33  A    between atoms: _75  and  _76
REMARK   34  A    between atoms: _76  and  _77
REMARK   35  A    between atoms: _86  and  _88
REMARK   36  A    between atoms: _88  and  _89
REMARK   37  A    between atoms: _88  and  _91
REMARK   38  A    between atoms: _91  and  _92
REMARK   39  A    between atoms: _95  and  _97
REMARK   40  A    between atoms: _97  and  _98
REMARK   41  A    between atoms: _101  and  _103
REMARK   42  A    between atoms: _103  and  _104
REMARK   43  A    between atoms: _103  and  _106
REMARK   44  A    between atoms: _106  and  _107
REMARK   45  A    between atoms: _113  and  _115
REMARK   46  A    between atoms: _115  and  _116
REMARK   47  A    between atoms: _115  and  _118
REMARK   48  A    between atoms: _118  and  _119
REMARK   49  A    between atoms: _124  and  _125
REMARK   50  A    between atoms: _128  and  _129
REMARK   51  A    between atoms: _134  and  _136
REMARK   52  A    between atoms: _136  and  _137
REMARK   53  A    between atoms: _136  and  _139
REMARK   54  A    between atoms: _139  and  _140
REMARK   55  A    between atoms: _145  and  _147
REMARK   56  A    between atoms: _147  and  _148
REMARK   57  A    between atoms: _147  and  _150
REMARK   58  A    between atoms: _150  and  _151
REMARK   59  A    between atoms: _154  and  _156
REMARK   60  A    between atoms: _156  and  _157
REMARK   61  A    between atoms: _156  and  _159
REMARK   62  A    between atoms: _159  and  _160
REMARK   63  A    between atoms: _165  and  _167
REMARK   64  A    between atoms: _167  and  _168
REMARK   65  A    between atoms: _167  and  _170
REMARK   66  A    between atoms: _170  and  _171
REMARK   67  A    between atoms: _177  and  _179
REMARK   68  A    between atoms: _179  and  _180
REMARK   69  A    between atoms: _179  and  _182
REMARK   70  A    between atoms: _182  and  _183
REMARK   71  A    between atoms: _189  and  _191
REMARK   72  A    between atoms: _191  and  _192
REMARK   73  A    between atoms: _191  and  _194
REMARK   74  A    between atoms: _194  and  _195
REMARK   75  A    between atoms: _195  and  _196
REMARK   76  A    between atoms: _199  and  _201
REMARK   77  A    between atoms: _201  and  _202
REMARK   78  A    between atoms: _201  and  _204
REMARK   79  A    between atoms: _204  and  _205
REMARK   80  A    between atoms: _205  and  _206
REMARK   81  A    between atoms: _206  and  _207
REMARK   82  A    between atoms: _216  and  _218
REMARK   83  A    between atoms: _218  and  _219
REMARK   84  A    between atoms: _218  and  _221
REMARK   85  A    between atoms: _221  and  _222
REMARK   86  A    between atoms: _222  and  _223
REMARK   87  A    between atoms: _226  and  _228
REMARK   88  A    between atoms: _228  and  _229
REMARK   89  A    between atoms: _228  and  _231
REMARK   90  A    between atoms: _231  and  _232
REMARK   91  A    between atoms: _237  and  _239
REMARK   92  A    between atoms: _239  and  _240
REMARK   93  A    between atoms: _239  and  _242
REMARK   94  A    between atoms: _242  and  _243
REMARK   95  A    between atoms: _246  and  _248
REMARK   96  A    between atoms: _248  and  _249
REMARK   97  A    between atoms: _248  and  _251
REMARK   98  A    between atoms: _251  and  _252
REMARK   99  A    between atoms: _255  and  _257
REMARK  100  A    between atoms: _257  and  _258
REMARK  101  A    between atoms: _257  and  _260
REMARK  102  A    between atoms: _260  and  _261
REMARK  103  A    between atoms: _266  and  _268
REMARK  104  A    between atoms: _268  and  _269
REMARK  105  A    between atoms: _268  and  _271
REMARK  106  A    between atoms: _271  and  _272
REMARK  107  A    between atoms: _275  and  _277
REMARK  108  A    between atoms: _277  and  _278
REMARK  109  A    between atoms: _277  and  _280
REMARK  110  A    between atoms: _280  and  _281
REMARK  111  A    between atoms: _286  and  _288
REMARK  112  A    between atoms: _288  and  _289
REMARK  113  A    between atoms: _288  and  _291
REMARK  114  A    between atoms: _291  and  _292
REMARK  115  A    between atoms: _297  and  _299
REMARK  116  A    between atoms: _299  and  _300
REMARK  117  A    between atoms: _299  and  _302
REMARK  118  A    between atoms: _302  and  _303
REMARK  119  A    between atoms: _306  and  _308
REMARK  120  A    between atoms: _308  and  _309
REMARK  121  A    between atoms: _308  and  _311
REMARK  122  A    between atoms: _314  and  _316
REMARK  123  A    between atoms: _316  and  _317
REMARK  124  A    between atoms: _316  and  _319
REMARK  125  A    between atoms: _319  and  _320
REMARK  126  A    between atoms: _323  and  _325
REMARK  127  A    between atoms: _325  and  _326
REMARK  128  A    between atoms: _325  and  _328
REMARK  129  A    between atoms: _328  and  _329
REMARK  130  A    between atoms: _329  and  _330
REMARK  131  A    between atoms: _333  and  _335
REMARK  132  A    between atoms: _335  and  _336
REMARK  133  A    between atoms: _339  and  _341
REMARK  134  A    between atoms: _341  and  _342
REMARK  135  A    between atoms: _341  and  _344
REMARK  136  A    between atoms: _344  and  _345
REMARK  137  A    between atoms: _348  and  _350
REMARK  138  A    between atoms: _350  and  _351
REMARK  139  A    between atoms: _350  and  _353
REMARK  140  A    between atoms: _353  and  _354
REMARK  141  A    between atoms: _354  and  _355
REMARK  142  A    between atoms: _358  and  _360
REMARK  143  A    between atoms: _360  and  _361
REMARK  144  A    between atoms: _360  and  _363
REMARK  145  A    between atoms: _363  and  _364
REMARK  146  A    between atoms: _369  and  _371
REMARK  147  A    between atoms: _371  and  _372
REMARK  148  A    between atoms: _374  and  _376
REMARK  149  A    between atoms: _376  and  _377
REMARK  150  A    between atoms: _376  and  _379
REMARK  151  A    between atoms: _382  and  _384
REMARK  152  A    between atoms: _384  and  _385
REMARK  153  A    between atoms: _388  and  _390
REMARK  154  A    between atoms: _390  and  _391
REMARK  155  A    between atoms: _390  and  _393
REMARK  156  A    between atoms: _393  and  _394
REMARK  157  A    between atoms: _399  and  _401
REMARK  158  A    between atoms: _401  and  _402
REMARK  159  A    between atoms: _401  and  _404
REMARK  160  A    between atoms: _404  and  _405
REMARK  161  A    between atoms: _405  and  _406
REMARK  162  A    between atoms: _406  and  _407
REMARK  163  A    between atoms: _407  and  _408
REMARK  164  A    between atoms: _412  and  _414
REMARK  165  A    between atoms: _414  and  _415
REMARK  166  A    between atoms: _414  and  _417
REMARK  167  A    between atoms: _417  and  _418
REMARK  168  A    between atoms: _423  and  _425
REMARK  169  A    between atoms: _425  and  _426
REMARK  170  A    between atoms: _428  and  _430
REMARK  171  A    between atoms: _430  and  _431
REMARK  172  A    between atoms: _430  and  _433
REMARK  173  A    between atoms: _433  and  _434
REMARK  174  A    between atoms: _434  and  _435
REMARK  175  A    between atoms: _435  and  _436
REMARK  176  A    between atoms: _436  and  _437
REMARK  177  A    between atoms: _441  and  _443
REMARK  178  A    between atoms: _443  and  _444
REMARK  179  A    between atoms: _443  and  _446
REMARK  180  A    between atoms: _446  and  _447
REMARK  181  A    between atoms: _447  and  _448
REMARK  182  A    between atoms: _448  and  _449
REMARK  183  A    between atoms: _458  and  _460
REMARK  184  A    between atoms: _460  and  _461
REMARK  185  A    between atoms: _460  and  _463
REMARK  186  A    between atoms: _463  and  _464
REMARK  187  A    between atoms: _469  and  _470
REMARK  188  A    between atoms: _472  and  _474
REMARK  189  A    between atoms: _474  and  _475
REMARK  190  A    between atoms: _474  and  _477
REMARK  191  A    between atoms: _477  and  _478
REMARK  192  A    between atoms: _478  and  _479
REMARK  193  A    between atoms: _479  and  _480
REMARK  194  A    between atoms: _480  and  _481
REMARK  195  A    between atoms: _485  and  _487
REMARK  196  A    between atoms: _487  and  _488
REMARK  197  A    between atoms: _487  and  _490
REMARK  198  A    between atoms: _490  and  _491
REMARK  199  A    between atoms: _494  and  _496
REMARK  200  A    between atoms: _496  and  _497
REMARK  201  A    between atoms: _496  and  _499
REMARK  202  A    between atoms: _499  and  _500
REMARK  203  A    between atoms: _500  and  _501
REMARK  204  A    between atoms: _504  and  _506
REMARK  205  A    between atoms: _506  and  _507
REMARK  206  A    between atoms: _510  and  _512
REMARK  207  A    between atoms: _512  and  _513
REMARK  208  A    between atoms: _512  and  _515
REMARK  209  A    between atoms: _515  and  _516
REMARK  210  A    between atoms: _518  and  _520
REMARK  211  A    between atoms: _520  and  _521
REMARK  212  A    between atoms: _523  and  _525
REMARK  213  A    between atoms: _525  and  _526
REMARK  214  A    between atoms: _525  and  _528
REMARK  215  A    between atoms: _528  and  _529
REMARK  216  A    between atoms: _532  and  _534
REMARK  217  A    between atoms: _534  and  _535
REMARK  218  A    between atoms: _537  and  _539
REMARK  219  A    between atoms: _539  and  _540
REMARK  220  A    between atoms: _539  and  _542
REMARK  221  A    between atoms: _542  and  _543
REMARK  222  A    between atoms: _548  and  _550
REMARK  223  A    between atoms: _550  and  _551
REMARK  224  A    between atoms: _550  and  _553
REMARK  225  A    between atoms: _553  and  _554
REMARK  226  A    between atoms: _554  and  _555
REMARK  227  A    between atoms: _562  and  _563
REMARK  228  A    between atoms: _563  and  _579
REMARK  229  A    between atoms: _564  and  _566
REMARK  230  A    between atoms: _566  and  _567
REMARK  231  A    between atoms: _567  and  _568
REMARK  232  A    between atoms: _572  and  _574
REMARK  233  A    between atoms: _574  and  _575
REMARK  234  A    between atoms: _574  and  _582
REMARK  235  A    between atoms: _575  and  _576
REMARK  236  A    between atoms: _576  and  _577
REMARK  237  A    between atoms: _577  and  _578
REMARK  238  A    between atoms: _578  and  _579
REMARK  239  A    between atoms: _584  and  _586
REMARK  240  A    between atoms: _586  and  _587
REMARK  241  A    between atoms: _586  and  _589
REMARK  242  A    between atoms: _589  and  _590
REMARK  243  A    between atoms: _593  and  _595
REMARK  244  A    between atoms: _595  and  _596
REMARK  245  A    between atoms: _598  and  _600
REMARK  246  A    between atoms: _600  and  _601
REMARK  247  A    between atoms: _604  and  _606
REMARK  248  A    between atoms: _606  and  _607
REMARK  249  A    between atoms: _606  and  _609
REMARK  250  A    between atoms: _609  and  _610
REMARK  251  A    between atoms: _615  and  _616
REMARK                            x       y       z     vdW  Elec       q    Type
REMARK                         _______ _______ _______ _____ _____    ______ ____
ROOT
ATOM      1  O   HOH     1      36.390  24.878  24.170  0.00  0.00    +0.000 OA
ENDROOT
TORSDOF 0
REMARK  Name = ../refined-set-2016/3l7d/3l7d_pocket.pdb
REMARK  251 active torsions:
REMARK  status: ('A' for Active; 'I' for Inactive)
REMARK    1  A    between atoms: _1  and  _3
REMARK    2  A    between atoms: _3  and  _4
REMARK    3  A    between atoms: _3  and  _6
REMARK    4  A    between atoms: _6  and  _7
REMARK    5  A    between atoms: _12  and  _13
REMARK    6  A    between atoms: _15  and  _17
REMARK    7  A    between atoms: _17  and  _18
REMARK    8  A    between atoms: _17  and  _20
REMARK    9  A    between atoms: _20  and  _21
REMARK   10  A    between atoms: _24  and  _26
REMARK   11  A    between atoms: _26  and  _27
REMARK   12  A    between atoms: _26  and  _29
REMARK   13  A    between atoms: _29  and  _30
REMARK   14  A    between atoms: _30  and  _31
REMARK   15  A    between atoms: _34  and  _36
REMARK   16  A    between atoms: _36  and  _37
REMARK   17  A    between atoms: _36  and  _39
REMARK   18  A    between atoms: _39  and  _40
REMARK   19  A    between atoms: _45  and  _47
REMARK   20  A    between atoms: _47  and  _48
REMARK   21  A    between atoms: _50  and  _52
REMARK   22  A    between atoms: _52  and  _53
REMARK   23  A    between atoms: _55  and  _57
REMARK   24  A    between atoms: _57  and  _58
REMARK   25  A    between atoms: _57  and  _60
REMARK   26  A    between atoms: _60  and  _61
REMARK   27  A    between atoms: _64  and  _66
REMARK   28  A    between atoms: _66  and  _67
REMARK   29  A    between atoms: _69  and  _71
REMARK   30  A    between atoms: _71  and  _72
REMARK   31  A    between atoms: _71  and  _74
REMARK   32  A    between atoms: _74  and  _75
REMARK   33  A    between atoms: _75  and  _76
REMARK   34  A    between atoms: _76  and  _77
REMARK   35  A    between atoms: _86  and  _88
REMARK   36  A    between atoms: _88  and  _89
REMARK   37  A    between atoms: _88  and  _91
REMARK   38  A    between atoms: _91  and  _92
REMARK   39  A    between atoms: _95  and  _97
REMARK   40  A    between atoms: _97  and  _98
REMARK   41  A    between atoms: _101  and  _103
REMARK   42  A    between atoms: _103  and  _104
REMARK   43  A    between atoms: _103  and  _106
REMARK   44  A    between atoms: _106  and  _107
REMARK   45  A    between atoms: _113  and  _115
REMARK   46  A    between atoms: _115  and  _116
REMARK   47  A    between atoms: _115  and  _118
REMARK   48  A    between atoms: _118  and  _119
REMARK   49  A    between atoms: _124  and  _125
REMARK   50  A    between atoms: _128  and  _129
REMARK   51  A    between atoms: _134  and  _136
REMARK   52  A    between atoms: _136  and  _137
REMARK   53  A    between atoms: _136  and  _139
REMARK   54  A    between atoms: _139  and  _140
REMARK   55  A    between atoms: _145  and  _147
REMARK   56  A    between atoms: _147  and  _148
REMARK   57  A    between atoms: _147  and  _150
REMARK   58  A    between atoms: _150  and  _151
REMARK   59  A    between atoms: _154  and  _156
REMARK   60  A    between atoms: _156  and  _157
REMARK   61  A    between atoms: _156  and  _159
REMARK   62  A    between atoms: _159  and  _160
REMARK   63  A    between atoms: _165  and  _167
REMARK   64  A    between atoms: _167  and  _168
REMARK   65  A    between atoms: _167  and  _170
REMARK   66  A    between atoms: _170  and  _171
REMARK   67  A    between atoms: _177  and  _179
REMARK   68  A    between atoms: _179  and  _180
REMARK   69  A    between atoms: _179  and  _182
REMARK   70  A    between atoms: _182  and  _183
REMARK   71  A    between atoms: _189  and  _191
REMARK   72  A    between atoms: _191  and  _192
REMARK   73  A    between atoms: _191  and  _194
REMARK   74  A    between atoms: _194  and  _195
REMARK   75  A    between atoms: _195  and  _196
REMARK   76  A    between atoms: _199  and  _201
REMARK   77  A    between atoms: _201  and  _202
REMARK   78  A    between atoms: _201  and  _204
REMARK   79  A    between atoms: _204  and  _205
REMARK   80  A    between atoms: _205  and  _206
REMARK   81  A    between atoms: _206  and  _207
REMARK   82  A    between atoms: _216  and  _218
REMARK   83  A    between atoms: _218  and  _219
REMARK   84  A    between atoms: _218  and  _221
REMARK   85  A    between atoms: _221  and  _222
REMARK   86  A    between atoms: _222  and  _223
REMARK   87  A    between atoms: _226  and  _228
REMARK   88  A    between atoms: _228  and  _229
REMARK   89  A    between atoms: _228  and  _231
REMARK   90  A    between atoms: _231  and  _232
REMARK   91  A    between atoms: _237  and  _239
REMARK   92  A    between atoms: _239  and  _240
REMARK   93  A    between atoms: _239  and  _242
REMARK   94  A    between atoms: _242  and  _243
REMARK   95  A    between atoms: _246  and  _248
REMARK   96  A    between atoms: _248  and  _249
REMARK   97  A    between atoms: _248  and  _251
REMARK   98  A    between atoms: _251  and  _252
REMARK   99  A    between atoms: _255  and  _257
REMARK  100  A    between atoms: _257  and  _258
REMARK  101  A    between atoms: _257  and  _260
REMARK  102  A    between atoms: _260  and  _261
REMARK  103  A    between atoms: _266  and  _268
REMARK  104  A    between atoms: _268  and  _269
REMARK  105  A    between atoms: _268  and  _271
REMARK  106  A    between atoms: _271  and  _272
REMARK  107  A    between atoms: _275  and  _277
REMARK  108  A    between atoms: _277  and  _278
REMARK  109  A    between atoms: _277  and  _280
REMARK  110  A    between atoms: _280  and  _281
REMARK  111  A    between atoms: _286  and  _288
REMARK  112  A    between atoms: _288  and  _289
REMARK  113  A    between atoms: _288  and  _291
REMARK  114  A    between atoms: _291  and  _292
REMARK  115  A    between atoms: _297  and  _299
REMARK  116  A    between atoms: _299  and  _300
REMARK  117  A    between atoms: _299  and  _302
REMARK  118  A    between atoms: _302  and  _303
REMARK  119  A    between atoms: _306  and  _308
REMARK  120  A    between atoms: _308  and  _309
REMARK  121  A    between atoms: _308  and  _311
REMARK  122  A    between atoms: _314  and  _316
REMARK  123  A    between atoms: _316  and  _317
REMARK  124  A    between atoms: _316  and  _319
REMARK  125  A    between atoms: _319  and  _320
REMARK  126  A    between atoms: _323  and  _325
REMARK  127  A    between atoms: _325  and  _326
REMARK  128  A    between atoms: _325  and  _328
REMARK  129  A    between atoms: _328  and  _329
REMARK  130  A    between atoms: _329  and  _330
REMARK  131  A    between atoms: _333  and  _335
REMARK  132  A    between atoms: _335  and  _336
REMARK  133  A    between atoms: _339  and  _341
REMARK  134  A    between atoms: _341  and  _342
REMARK  135  A    between atoms: _341  and  _344
REMARK  136  A    between atoms: _344  and  _345
REMARK  137  A    between atoms: _348  and  _350
REMARK  138  A    between atoms: _350  and  _351
REMARK  139  A    between atoms: _350  and  _353
REMARK  140  A    between atoms: _353  and  _354
REMARK  141  A    between atoms: _354  and  _355
REMARK  142  A    between atoms: _358  and  _360
REMARK  143  A    between atoms: _360  and  _361
REMARK  144  A    between atoms: _360  and  _363
REMARK  145  A    between atoms: _363  and  _364
REMARK  146  A    between atoms: _369  and  _371
REMARK  147  A    between atoms: _371  and  _372
REMARK  148  A    between atoms: _374  and  _376
REMARK  149  A    between atoms: _376  and  _377
REMARK  150  A    between atoms: _376  and  _379
REMARK  151  A    between atoms: _382  and  _384
REMARK  152  A    between atoms: _384  and  _385
REMARK  153  A    between atoms: _388  and  _390
REMARK  154  A    between atoms: _390  and  _391
REMARK  155  A    between atoms: _390  and  _393
REMARK  156  A    between atoms: _393  and  _394
REMARK  157  A    between atoms: _399  and  _401
REMARK  158  A    between atoms: _401  and  _402
REMARK  159  A    between atoms: _401  and  _404
REMARK  160  A    between atoms: _404  and  _405
REMARK  161  A    between atoms: _405  and  _406
REMARK  162  A    between atoms: _406  and  _407
REMARK  163  A    between atoms: _407  and  _408
REMARK  164  A    between atoms: _412  and  _414
REMARK  165  A    between atoms: _414  and  _415
REMARK  166  A    between atoms: _414  and  _417
REMARK  167  A    between atoms: _417  and  _418
REMARK  168  A    between atoms: _423  and  _425
REMARK  169  A    between atoms: _425  and  _426
REMARK  170  A    between atoms: _428  and  _430
REMARK  171  A    between atoms: _430  and  _431
REMARK  172  A    between atoms: _430  and  _433
REMARK  173  A    between atoms: _433  and  _434
REMARK  174  A    between atoms: _434  and  _435
REMARK  175  A    between atoms: _435  and  _436
REMARK  176  A    between atoms: _436  and  _437
REMARK  177  A    between atoms: _441  and  _443
REMARK  178  A    between atoms: _443  and  _444
REMARK  179  A    between atoms: _443  and  _446
REMARK  180  A    between atoms: _446  and  _447
REMARK  181  A    between atoms: _447  and  _448
REMARK  182  A    between atoms: _448  and  _449
REMARK  183  A    between atoms: _458  and  _460
REMARK  184  A    between atoms: _460  and  _461
REMARK  185  A    between atoms: _460  and  _463
REMARK  186  A    between atoms: _463  and  _464
REMARK  187  A    between atoms: _469  and  _470
REMARK  188  A    between atoms: _472  and  _474
REMARK  189  A    between atoms: _474  and  _475
REMARK  190  A    between atoms: _474  and  _477
REMARK  191  A    between atoms: _477  and  _478
REMARK  192  A    between atoms: _478  and  _479
REMARK  193  A    between atoms: _479  and  _480
REMARK  194  A    between atoms: _480  and  _481
REMARK  195  A    between atoms: _485  and  _487
REMARK  196  A    between atoms: _487  and  _488
REMARK  197  A    between atoms: _487  and  _490
REMARK  198  A    between atoms: _490  and  _491
REMARK  199  A    between atoms: _494  and  _496
REMARK  200  A    between atoms: _496  and  _497
REMARK  201  A    between atoms: _496  and  _499
REMARK  202  A    between atoms: _499  and  _500
REMARK  203  A    between atoms: _500  and  _501
REMARK  204  A    between atoms: _504  and  _506
REMARK  205  A    between atoms: _506  and  _507
REMARK  206  A    between atoms: _510  and  _512
REMARK  207  A    between atoms: _512  and  _513
REMARK  208  A    between atoms: _512  and  _515
REMARK  209  A    between atoms: _515  and  _516
REMARK  210  A    between atoms: _518  and  _520
REMARK  211  A    between atoms: _520  and  _521
REMARK  212  A    between atoms: _523  and  _525
REMARK  213  A    between atoms: _525  and  _526
REMARK  214  A    between atoms: _525  and  _528
REMARK  215  A    between atoms: _528  and  _529
REMARK  216  A    between atoms: _532  and  _534
REMARK  217  A    between atoms: _534  and  _535
REMARK  218  A    between atoms: _537  and  _539
REMARK  219  A    between atoms: _539  and  _540
REMARK  220  A    between atoms: _539  and  _542
REMARK  221  A    between atoms: _542  and  _543
REMARK  222  A    between atoms: _548  and  _550
REMARK  223  A    between atoms: _550  and  _551
REMARK  224  A    between atoms: _550  and  _553
REMARK  225  A    between atoms: _553  and  _554
REMARK  226  A    between atoms: _554  and  _555
REMARK  227  A    between atoms: _562  and  _563
REMARK  228  A    between atoms: _563  and  _579
REMARK  229  A    between atoms: _564  and  _566
REMARK  230  A    between atoms: _566  and  _567
REMARK  231  A    between atoms: _567  and  _568
REMARK  232  A    between atoms: _572  and  _574
REMARK  233  A    between atoms: _574  and  _575
REMARK  234  A    between atoms: _574  and  _582
REMARK  235  A    between atoms: _575  and  _576
REMARK  236  A    between atoms: _576  and  _577
REMARK  237  A    between atoms: _577  and  _578
REMARK  238  A    between atoms: _578  and  _579
REMARK  239  A    between atoms: _584  and  _586
REMARK  240  A    between atoms: _586  and  _587
REMARK  241  A    between atoms: _586  and  _589
REMARK  242  A    between atoms: _589  and  _590
REMARK  243  A    between atoms: _593  and  _595
REMARK  244  A    between atoms: _595  and  _596
REMARK  245  A    between atoms: _598  and  _600
REMARK  246  A    between atoms: _600  and  _601
REMARK  247  A    between atoms: _604  and  _606
REMARK  248  A    between atoms: _606  and  _607
REMARK  249  A    between atoms: _606  and  _609
REMARK  250  A    between atoms: _609  and  _610
REMARK  251  A    between atoms: _615  and  _616
REMARK                            x       y       z     vdW  Elec       q    Type
REMARK                         _______ _______ _______ _____ _____    ______ ____
ROOT
ATOM      1  O   HOH     1      39.393  22.895  19.812  0.00  0.00    +0.000 OA
ENDROOT
TORSDOF 0
REMARK  Name = ../refined-set-2016/3l7d/3l7d_pocket.pdb
REMARK  251 active torsions:
REMARK  status: ('A' for Active; 'I' for Inactive)
REMARK    1  A    between atoms: _1  and  _3
REMARK    2  A    between atoms: _3  and  _4
REMARK    3  A    between atoms: _3  and  _6
REMARK    4  A    between atoms: _6  and  _7
REMARK    5  A    between atoms: _12  and  _13
REMARK    6  A    between atoms: _15  and  _17
REMARK    7  A    between atoms: _17  and  _18
REMARK    8  A    between atoms: _17  and  _20
REMARK    9  A    between atoms: _20  and  _21
REMARK   10  A    between atoms: _24  and  _26
REMARK   11  A    between atoms: _26  and  _27
REMARK   12  A    between atoms: _26  and  _29
REMARK   13  A    between atoms: _29  and  _30
REMARK   14  A    between atoms: _30  and  _31
REMARK   15  A    between atoms: _34  and  _36
REMARK   16  A    between atoms: _36  and  _37
REMARK   17  A    between atoms: _36  and  _39
REMARK   18  A    between atoms: _39  and  _40
REMARK   19  A    between atoms: _45  and  _47
REMARK   20  A    between atoms: _47  and  _48
REMARK   21  A    between atoms: _50  and  _52
REMARK   22  A    between atoms: _52  and  _53
REMARK   23  A    between atoms: _55  and  _57
REMARK   24  A    between atoms: _57  and  _58
REMARK   25  A    between atoms: _57  and  _60
REMARK   26  A    between atoms: _60  and  _61
REMARK   27  A    between atoms: _64  and  _66
REMARK   28  A    between atoms: _66  and  _67
REMARK   29  A    between atoms: _69  and  _71
REMARK   30  A    between atoms: _71  and  _72
REMARK   31  A    between atoms: _71  and  _74
REMARK   32  A    between atoms: _74  and  _75
REMARK   33  A    between atoms: _75  and  _76
REMARK   34  A    between atoms: _76  and  _77
REMARK   35  A    between atoms: _86  and  _88
REMARK   36  A    between atoms: _88  and  _89
REMARK   37  A    between atoms: _88  and  _91
REMARK   38  A    between atoms: _91  and  _92
REMARK   39  A    between atoms: _95  and  _97
REMARK   40  A    between atoms: _97  and  _98
REMARK   41  A    between atoms: _101  and  _103
REMARK   42  A    between atoms: _103  and  _104
REMARK   43  A    between atoms: _103  and  _106
REMARK   44  A    between atoms: _106  and  _107
REMARK   45  A    between atoms: _113  and  _115
REMARK   46  A    between atoms: _115  and  _116
REMARK   47  A    between atoms: _115  and  _118
REMARK   48  A    between atoms: _118  and  _119
REMARK   49  A    between atoms: _124  and  _125
REMARK   50  A    between atoms: _128  and  _129
REMARK   51  A    between atoms: _134  and  _136
REMARK   52  A    between atoms: _136  and  _137
REMARK   53  A    between atoms: _136  and  _139
REMARK   54  A    between atoms: _139  and  _140
REMARK   55  A    between atoms: _145  and  _147
REMARK   56  A    between atoms: _147  and  _148
REMARK   57  A    between atoms: _147  and  _150
REMARK   58  A    between atoms: _150  and  _151
REMARK   59  A    between atoms: _154  and  _156
REMARK   60  A    between atoms: _156  and  _157
REMARK   61  A    between atoms: _156  and  _159
REMARK   62  A    between atoms: _159  and  _160
REMARK   63  A    between atoms: _165  and  _167
REMARK   64  A    between atoms: _167  and  _168
REMARK   65  A    between atoms: _167  and  _170
REMARK   66  A    between atoms: _170  and  _171
REMARK   67  A    between atoms: _177  and  _179
REMARK   68  A    between atoms: _179  and  _180
REMARK   69  A    between atoms: _179  and  _182
REMARK   70  A    between atoms: _182  and  _183
REMARK   71  A    between atoms: _189  and  _191
REMARK   72  A    between atoms: _191  and  _192
REMARK   73  A    between atoms: _191  and  _194
REMARK   74  A    between atoms: _194  and  _195
REMARK   75  A    between atoms: _195  and  _196
REMARK   76  A    between atoms: _199  and  _201
REMARK   77  A    between atoms: _201  and  _202
REMARK   78  A    between atoms: _201  and  _204
REMARK   79  A    between atoms: _204  and  _205
REMARK   80  A    between atoms: _205  and  _206
REMARK   81  A    between atoms: _206  and  _207
REMARK   82  A    between atoms: _216  and  _218
REMARK   83  A    between atoms: _218  and  _219
REMARK   84  A    between atoms: _218  and  _221
REMARK   85  A    between atoms: _221  and  _222
REMARK   86  A    between atoms: _222  and  _223
REMARK   87  A    between atoms: _226  and  _228
REMARK   88  A    between atoms: _228  and  _229
REMARK   89  A    between atoms: _228  and  _231
REMARK   90  A    between atoms: _231  and  _232
REMARK   91  A    between atoms: _237  and  _239
REMARK   92  A    between atoms: _239  and  _240
REMARK   93  A    between atoms: _239  and  _242
REMARK   94  A    between atoms: _242  and  _243
REMARK   95  A    between atoms: _246  and  _248
REMARK   96  A    between atoms: _248  and  _249
REMARK   97  A    between atoms: _248  and  _251
REMARK   98  A    between atoms: _251  and  _252
REMARK   99  A    between atoms: _255  and  _257
REMARK  100  A    between atoms: _257  and  _258
REMARK  101  A    between atoms: _257  and  _260
REMARK  102  A    between atoms: _260  and  _261
REMARK  103  A    between atoms: _266  and  _268
REMARK  104  A    between atoms: _268  and  _269
REMARK  105  A    between atoms: _268  and  _271
REMARK  106  A    between atoms: _271  and  _272
REMARK  107  A    between atoms: _275  and  _277
REMARK  108  A    between atoms: _277  and  _278
REMARK  109  A    between atoms: _277  and  _280
REMARK  110  A    between atoms: _280  and  _281
REMARK  111  A    between atoms: _286  and  _288
REMARK  112  A    between atoms: _288  and  _289
REMARK  113  A    between atoms: _288  and  _291
REMARK  114  A    between atoms: _291  and  _292
REMARK  115  A    between atoms: _297  and  _299
REMARK  116  A    between atoms: _299  and  _300
REMARK  117  A    between atoms: _299  and  _302
REMARK  118  A    between atoms: _302  and  _303
REMARK  119  A    between atoms: _306  and  _308
REMARK  120  A    between atoms: _308  and  _309
REMARK  121  A    between atoms: _308  and  _311
REMARK  122  A    between atoms: _314  and  _316
REMARK  123  A    between atoms: _316  and  _317
REMARK  124  A    between atoms: _316  and  _319
REMARK  125  A    between atoms: _319  and  _320
REMARK  126  A    between atoms: _323  and  _325
REMARK  127  A    between atoms: _325  and  _326
REMARK  128  A    between atoms: _325  and  _328
REMARK  129  A    between atoms: _328  and  _329
REMARK  130  A    between atoms: _329  and  _330
REMARK  131  A    between atoms: _333  and  _335
REMARK  132  A    between atoms: _335  and  _336
REMARK  133  A    between atoms: _339  and  _341
REMARK  134  A    between atoms: _341  and  _342
REMARK  135  A    between atoms: _341  and  _344
REMARK  136  A    between atoms: _344  and  _345
REMARK  137  A    between atoms: _348  and  _350
REMARK  138  A    between atoms: _350  and  _351
REMARK  139  A    between atoms: _350  and  _353
REMARK  140  A    between atoms: _353  and  _354
REMARK  141  A    between atoms: _354  and  _355
REMARK  142  A    between atoms: _358  and  _360
REMARK  143  A    between atoms: _360  and  _361
REMARK  144  A    between atoms: _360  and  _363
REMARK  145  A    between atoms: _363  and  _364
REMARK  146  A    between atoms: _369  and  _371
REMARK  147  A    between atoms: _371  and  _372
REMARK  148  A    between atoms: _374  and  _376
REMARK  149  A    between atoms: _376  and  _377
REMARK  150  A    between atoms: _376  and  _379
REMARK  151  A    between atoms: _382  and  _384
REMARK  152  A    between atoms: _384  and  _385
REMARK  153  A    between atoms: _388  and  _390
REMARK  154  A    between atoms: _390  and  _391
REMARK  155  A    between atoms: _390  and  _393
REMARK  156  A    between atoms: _393  and  _394
REMARK  157  A    between atoms: _399  and  _401
REMARK  158  A    between atoms: _401  and  _402
REMARK  159  A    between atoms: _401  and  _404
REMARK  160  A    between atoms: _404  and  _405
REMARK  161  A    between atoms: _405  and  _406
REMARK  162  A    between atoms: _406  and  _407
REMARK  163  A    between atoms: _407  and  _408
REMARK  164  A    between atoms: _412  and  _414
REMARK  165  A    between atoms: _414  and  _415
REMARK  166  A    between atoms: _414  and  _417
REMARK  167  A    between atoms: _417  and  _418
REMARK  168  A    between atoms: _423  and  _425
REMARK  169  A    between atoms: _425  and  _426
REMARK  170  A    between atoms: _428  and  _430
REMARK  171  A    between atoms: _430  and  _431
REMARK  172  A    between atoms: _430  and  _433
REMARK  173  A    between atoms: _433  and  _434
REMARK  174  A    between atoms: _434  and  _435
REMARK  175  A    between atoms: _435  and  _436
REMARK  176  A    between atoms: _436  and  _437
REMARK  177  A    between atoms: _441  and  _443
REMARK  178  A    between atoms: _443  and  _444
REMARK  179  A    between atoms: _443  and  _446
REMARK  180  A    between atoms: _446  and  _447
REMARK  181  A    between atoms: _447  and  _448
REMARK  182  A    between atoms: _448  and  _449
REMARK  183  A    between atoms: _458  and  _460
REMARK  184  A    between atoms: _460  and  _461
REMARK  185  A    between atoms: _460  and  _463
REMARK  186  A    between atoms: _463  and  _464
REMARK  187  A    between atoms: _469  and  _470
REMARK  188  A    between atoms: _472  and  _474
REMARK  189  A    between atoms: _474  and  _475
REMARK  190  A    between atoms: _474  and  _477
REMARK  191  A    between atoms: _477  and  _478
REMARK  192  A    between atoms: _478  and  _479
REMARK  193  A    between atoms: _479  and  _480
REMARK  194  A    between atoms: _480  and  _481
REMARK  195  A    between atoms: _485  and  _487
REMARK  196  A    between atoms: _487  and  _488
REMARK  197  A    between atoms: _487  and  _490
REMARK  198  A    between atoms: _490  and  _491
REMARK  199  A    between atoms: _494  and  _496
REMARK  200  A    between atoms: _496  and  _497
REMARK  201  A    between atoms: _496  and  _499
REMARK  202  A    between atoms: _499  and  _500
REMARK  203  A    between atoms: _500  and  _501
REMARK  204  A    between atoms: _504  and  _506
REMARK  205  A    between atoms: _506  and  _507
REMARK  206  A    between atoms: _510  and  _512
REMARK  207  A    between atoms: _512  and  _513
REMARK  208  A    between atoms: _512  and  _515
REMARK  209  A    between atoms: _515  and  _516
REMARK  210  A    between atoms: _518  and  _520
REMARK  211  A    between atoms: _520  and  _521
REMARK  212  A    between atoms: _523  and  _525
REMARK  213  A    between atoms: _525  and  _526
REMARK  214  A    between atoms: _525  and  _528
REMARK  215  A    between atoms: _528  and  _529
REMARK  216  A    between atoms: _532  and  _534
REMARK  217  A    between atoms: _534  and  _535
REMARK  218  A    between atoms: _537  and  _539
REMARK  219  A    between atoms: _539  and  _540
REMARK  220  A    between atoms: _539  and  _542
REMARK  221  A    between atoms: _542  and  _543
REMARK  222  A    between atoms: _548  and  _550
REMARK  223  A    between atoms: _550  and  _551
REMARK  224  A    between atoms: _550  and  _553
REMARK  225  A    between atoms: _553  and  _554
REMARK  226  A    between atoms: _554  and  _555
REMARK  227  A    between atoms: _562  and  _563
REMARK  228  A    between atoms: _563  and  _579
REMARK  229  A    between atoms: _564  and  _566
REMARK  230  A    between atoms: _566  and  _567
REMARK  231  A    between atoms: _567  and  _568
REMARK  232  A    between atoms: _572  and  _574
REMARK  233  A    between atoms: _574  and  _575
REMARK  234  A    between atoms: _574  and  _582
REMARK  235  A    between atoms: _575  and  _576
REMARK  236  A    between atoms: _576  and  _577
REMARK  237  A    between atoms: _577  and  _578
REMARK  238  A    between atoms: _578  and  _579
REMARK  239  A    between atoms: _584  and  _586
REMARK  240  A    between atoms: _586  and  _587
REMARK  241  A    between atoms: _586  and  _589
REMARK  242  A    between atoms: _589  and  _590
REMARK  243  A    between atoms: _593  and  _595
REMARK  244  A    between atoms: _595  and  _596
REMARK  245  A    between atoms: _598  and  _600
REMARK  246  A    between atoms: _600  and  _601
REMARK  247  A    between atoms: _604  and  _606
REMARK  248  A    between atoms: _606  and  _607
REMARK  249  A    between atoms: _606  and  _609
REMARK  250  A    between atoms: _609  and  _610
REMARK  251  A    between atoms: _615  and  _616
REMARK                            x       y       z     vdW  Elec       q    Type
REMARK                         _______ _______ _______ _____ _____    ______ ____
ROOT
ATOM      1  O   HOH     1      36.278  28.122  37.753  0.00  0.00    +0.000 OA
ENDROOT
TORSDOF 0
REMARK  Name = ../refined-set-2016/3l7d/3l7d_pocket.pdb
REMARK  251 active torsions:
REMARK  status: ('A' for Active; 'I' for Inactive)
REMARK    1  A    between atoms: _1  and  _3
REMARK    2  A    between atoms: _3  and  _4
REMARK    3  A    between atoms: _3  and  _6
REMARK    4  A    between atoms: _6  and  _7
REMARK    5  A    between atoms: _12  and  _13
REMARK    6  A    between atoms: _15  and  _17
REMARK    7  A    between atoms: _17  and  _18
REMARK    8  A    between atoms: _17  and  _20
REMARK    9  A    between atoms: _20  and  _21
REMARK   10  A    between atoms: _24  and  _26
REMARK   11  A    between atoms: _26  and  _27
REMARK   12  A    between atoms: _26  and  _29
REMARK   13  A    between atoms: _29  and  _30
REMARK   14  A    between atoms: _30  and  _31
REMARK   15  A    between atoms: _34  and  _36
REMARK   16  A    between atoms: _36  and  _37
REMARK   17  A    between atoms: _36  and  _39
REMARK   18  A    between atoms: _39  and  _40
REMARK   19  A    between atoms: _45  and  _47
REMARK   20  A    between atoms: _47  and  _48
REMARK   21  A    between atoms: _50  and  _52
REMARK   22  A    between atoms: _52  and  _53
REMARK   23  A    between atoms: _55  and  _57
REMARK   24  A    between atoms: _57  and  _58
REMARK   25  A    between atoms: _57  and  _60
REMARK   26  A    between atoms: _60  and  _61
REMARK   27  A    between atoms: _64  and  _66
REMARK   28  A    between atoms: _66  and  _67
REMARK   29  A    between atoms: _69  and  _71
REMARK   30  A    between atoms: _71  and  _72
REMARK   31  A    between atoms: _71  and  _74
REMARK   32  A    between atoms: _74  and  _75
REMARK   33  A    between atoms: _75  and  _76
REMARK   34  A    between atoms: _76  and  _77
REMARK   35  A    between atoms: _86  and  _88
REMARK   36  A    between atoms: _88  and  _89
REMARK   37  A    between atoms: _88  and  _91
REMARK   38  A    between atoms: _91  and  _92
REMARK   39  A    between atoms: _95  and  _97
REMARK   40  A    between atoms: _97  and  _98
REMARK   41  A    between atoms: _101  and  _103
REMARK   42  A    between atoms: _103  and  _104
REMARK   43  A    between atoms: _103  and  _106
REMARK   44  A    between atoms: _106  and  _107
REMARK   45  A    between atoms: _113  and  _115
REMARK   46  A    between atoms: _115  and  _116
REMARK   47  A    between atoms: _115  and  _118
REMARK   48  A    between atoms: _118  and  _119
REMARK   49  A    between atoms: _124  and  _125
REMARK   50  A    between atoms: _128  and  _129
REMARK   51  A    between atoms: _134  and  _136
REMARK   52  A    between atoms: _136  and  _137
REMARK   53  A    between atoms: _136  and  _139
REMARK   54  A    between atoms: _139  and  _140
REMARK   55  A    between atoms: _145  and  _147
REMARK   56  A    between atoms: _147  and  _148
REMARK   57  A    between atoms: _147  and  _150
REMARK   58  A    between atoms: _150  and  _151
REMARK   59  A    between atoms: _154  and  _156
REMARK   60  A    between atoms: _156  and  _157
REMARK   61  A    between atoms: _156  and  _159
REMARK   62  A    between atoms: _159  and  _160
REMARK   63  A    between atoms: _165  and  _167
REMARK   64  A    between atoms: _167  and  _168
REMARK   65  A    between atoms: _167  and  _170
REMARK   66  A    between atoms: _170  and  _171
REMARK   67  A    between atoms: _177  and  _179
REMARK   68  A    between atoms: _179  and  _180
REMARK   69  A    between atoms: _179  and  _182
REMARK   70  A    between atoms: _182  and  _183
REMARK   71  A    between atoms: _189  and  _191
REMARK   72  A    between atoms: _191  and  _192
REMARK   73  A    between atoms: _191  and  _194
REMARK   74  A    between atoms: _194  and  _195
REMARK   75  A    between atoms: _195  and  _196
REMARK   76  A    between atoms: _199  and  _201
REMARK   77  A    between atoms: _201  and  _202
REMARK   78  A    between atoms: _201  and  _204
REMARK   79  A    between atoms: _204  and  _205
REMARK   80  A    between atoms: _205  and  _206
REMARK   81  A    between atoms: _206  and  _207
REMARK   82  A    between atoms: _216  and  _218
REMARK   83  A    between atoms: _218  and  _219
REMARK   84  A    between atoms: _218  and  _221
REMARK   85  A    between atoms: _221  and  _222
REMARK   86  A    between atoms: _222  and  _223
REMARK   87  A    between atoms: _226  and  _228
REMARK   88  A    between atoms: _228  and  _229
REMARK   89  A    between atoms: _228  and  _231
REMARK   90  A    between atoms: _231  and  _232
REMARK   91  A    between atoms: _237  and  _239
REMARK   92  A    between atoms: _239  and  _240
REMARK   93  A    between atoms: _239  and  _242
REMARK   94  A    between atoms: _242  and  _243
REMARK   95  A    between atoms: _246  and  _248
REMARK   96  A    between atoms: _248  and  _249
REMARK   97  A    between atoms: _248  and  _251
REMARK   98  A    between atoms: _251  and  _252
REMARK   99  A    between atoms: _255  and  _257
REMARK  100  A    between atoms: _257  and  _258
REMARK  101  A    between atoms: _257  and  _260
REMARK  102  A    between atoms: _260  and  _261
REMARK  103  A    between atoms: _266  and  _268
REMARK  104  A    between atoms: _268  and  _269
REMARK  105  A    between atoms: _268  and  _271
REMARK  106  A    between atoms: _271  and  _272
REMARK  107  A    between atoms: _275  and  _277
REMARK  108  A    between atoms: _277  and  _278
REMARK  109  A    between atoms: _277  and  _280
REMARK  110  A    between atoms: _280  and  _281
REMARK  111  A    between atoms: _286  and  _288
REMARK  112  A    between atoms: _288  and  _289
REMARK  113  A    between atoms: _288  and  _291
REMARK  114  A    between atoms: _291  and  _292
REMARK  115  A    between atoms: _297  and  _299
REMARK  116  A    between atoms: _299  and  _300
REMARK  117  A    between atoms: _299  and  _302
REMARK  118  A    between atoms: _302  and  _303
REMARK  119  A    between atoms: _306  and  _308
REMARK  120  A    between atoms: _308  and  _309
REMARK  121  A    between atoms: _308  and  _311
REMARK  122  A    between atoms: _314  and  _316
REMARK  123  A    between atoms: _316  and  _317
REMARK  124  A    between atoms: _316  and  _319
REMARK  125  A    between atoms: _319  and  _320
REMARK  126  A    between atoms: _323  and  _325
REMARK  127  A    between atoms: _325  and  _326
REMARK  128  A    between atoms: _325  and  _328
REMARK  129  A    between atoms: _328  and  _329
REMARK  130  A    between atoms: _329  and  _330
REMARK  131  A    between atoms: _333  and  _335
REMARK  132  A    between atoms: _335  and  _336
REMARK  133  A    between atoms: _339  and  _341
REMARK  134  A    between atoms: _341  and  _342
REMARK  135  A    between atoms: _341  and  _344
REMARK  136  A    between atoms: _344  and  _345
REMARK  137  A    between atoms: _348  and  _350
REMARK  138  A    between atoms: _350  and  _351
REMARK  139  A    between atoms: _350  and  _353
REMARK  140  A    between atoms: _353  and  _354
REMARK  141  A    between atoms: _354  and  _355
REMARK  142  A    between atoms: _358  and  _360
REMARK  143  A    between atoms: _360  and  _361
REMARK  144  A    between atoms: _360  and  _363
REMARK  145  A    between atoms: _363  and  _364
REMARK  146  A    between atoms: _369  and  _371
REMARK  147  A    between atoms: _371  and  _372
REMARK  148  A    between atoms: _374  and  _376
REMARK  149  A    between atoms: _376  and  _377
REMARK  150  A    between atoms: _376  and  _379
REMARK  151  A    between atoms: _382  and  _384
REMARK  152  A    between atoms: _384  and  _385
REMARK  153  A    between atoms: _388  and  _390
REMARK  154  A    between atoms: _390  and  _391
REMARK  155  A    between atoms: _390  and  _393
REMARK  156  A    between atoms: _393  and  _394
REMARK  157  A    between atoms: _399  and  _401
REMARK  158  A    between atoms: _401  and  _402
REMARK  159  A    between atoms: _401  and  _404
REMARK  160  A    between atoms: _404  and  _405
REMARK  161  A    between atoms: _405  and  _406
REMARK  162  A    between atoms: _406  and  _407
REMARK  163  A    between atoms: _407  and  _408
REMARK  164  A    between atoms: _412  and  _414
REMARK  165  A    between atoms: _414  and  _415
REMARK  166  A    between atoms: _414  and  _417
REMARK  167  A    between atoms: _417  and  _418
REMARK  168  A    between atoms: _423  and  _425
REMARK  169  A    between atoms: _425  and  _426
REMARK  170  A    between atoms: _428  and  _430
REMARK  171  A    between atoms: _430  and  _431
REMARK  172  A    between atoms: _430  and  _433
REMARK  173  A    between atoms: _433  and  _434
REMARK  174  A    between atoms: _434  and  _435
REMARK  175  A    between atoms: _435  and  _436
REMARK  176  A    between atoms: _436  and  _437
REMARK  177  A    between atoms: _441  and  _443
REMARK  178  A    between atoms: _443  and  _444
REMARK  179  A    between atoms: _443  and  _446
REMARK  180  A    between atoms: _446  and  _447
REMARK  181  A    between atoms: _447  and  _448
REMARK  182  A    between atoms: _448  and  _449
REMARK  183  A    between atoms: _458  and  _460
REMARK  184  A    between atoms: _460  and  _461
REMARK  185  A    between atoms: _460  and  _463
REMARK  186  A    between atoms: _463  and  _464
REMARK  187  A    between atoms: _469  and  _470
REMARK  188  A    between atoms: _472  and  _474
REMARK  189  A    between atoms: _474  and  _475
REMARK  190  A    between atoms: _474  and  _477
REMARK  191  A    between atoms: _477  and  _478
REMARK  192  A    between atoms: _478  and  _479
REMARK  193  A    between atoms: _479  and  _480
REMARK  194  A    between atoms: _480  and  _481
REMARK  195  A    between atoms: _485  and  _487
REMARK  196  A    between atoms: _487  and  _488
REMARK  197  A    between atoms: _487  and  _490
REMARK  198  A    between atoms: _490  and  _491
REMARK  199  A    between atoms: _494  and  _496
REMARK  200  A    between atoms: _496  and  _497
REMARK  201  A    between atoms: _496  and  _499
REMARK  202  A    between atoms: _499  and  _500
REMARK  203  A    between atoms: _500  and  _501
REMARK  204  A    between atoms: _504  and  _506
REMARK  205  A    between atoms: _506  and  _507
REMARK  206  A    between atoms: _510  and  _512
REMARK  207  A    between atoms: _512  and  _513
REMARK  208  A    between atoms: _512  and  _515
REMARK  209  A    between atoms: _515  and  _516
REMARK  210  A    between atoms: _518  and  _520
REMARK  211  A    between atoms: _520  and  _521
REMARK  212  A    between atoms: _523  and  _525
REMARK  213  A    between atoms: _525  and  _526
REMARK  214  A    between atoms: _525  and  _528
REMARK  215  A    between atoms: _528  and  _529
REMARK  216  A    between atoms: _532  and  _534
REMARK  217  A    between atoms: _534  and  _535
REMARK  218  A    between atoms: _537  and  _539
REMARK  219  A    between atoms: _539  and  _540
REMARK  220  A    between atoms: _539  and  _542
REMARK  221  A    between atoms: _542  and  _543
REMARK  222  A    between atoms: _548  and  _550
REMARK  223  A    between atoms: _550  and  _551
REMARK  224  A    between atoms: _550  and  _553
REMARK  225  A    between atoms: _553  and  _554
REMARK  226  A    between atoms: _554  and  _555
REMARK  227  A    between atoms: _562  and  _563
REMARK  228  A    between atoms: _563  and  _579
REMARK  229  A    between atoms: _564  and  _566
REMARK  230  A    between atoms: _566  and  _567
REMARK  231  A    between atoms: _567  and  _568
REMARK  232  A    between atoms: _572  and  _574
REMARK  233  A    between atoms: _574  and  _575
REMARK  234  A    between atoms: _574  and  _582
REMARK  235  A    between atoms: _575  and  _576
REMARK  236  A    between atoms: _576  and  _577
REMARK  237  A    between atoms: _577  and  _578
REMARK  238  A    between atoms: _578  and  _579
REMARK  239  A    between atoms: _584  and  _586
REMARK  240  A    between atoms: _586  and  _587
REMARK  241  A    between atoms: _586  and  _589
REMARK  242  A    between atoms: _589  and  _590
REMARK  243  A    between atoms: _593  and  _595
REMARK  244  A    between atoms: _595  and  _596
REMARK  245  A    between atoms: _598  and  _600
REMARK  246  A    between atoms: _600  and  _601
REMARK  247  A    between atoms: _604  and  _606
REMARK  248  A    between atoms: _606  and  _607
REMARK  249  A    between atoms: _606  and  _609
REMARK  250  A    between atoms: _609  and  _610
REMARK  251  A    between atoms: _615  and  _616
REMARK                            x       y       z     vdW  Elec       q    Type
REMARK                         _______ _______ _______ _____ _____    ______ ____
ROOT
ATOM      1  O   HOH     1      34.594  25.697  34.272  0.00  0.00    +0.000 OA
ENDROOT
TORSDOF 0
REMARK  Name = ../refined-set-2016/3l7d/3l7d_pocket.pdb
REMARK  251 active torsions:
REMARK  status: ('A' for Active; 'I' for Inactive)
REMARK    1  A    between atoms: _1  and  _3
REMARK    2  A    between atoms: _3  and  _4
REMARK    3  A    between atoms: _3  and  _6
REMARK    4  A    between atoms: _6  and  _7
REMARK    5  A    between atoms: _12  and  _13
REMARK    6  A    between atoms: _15  and  _17
REMARK    7  A    between atoms: _17  and  _18
REMARK    8  A    between atoms: _17  and  _20
REMARK    9  A    between atoms: _20  and  _21
REMARK   10  A    between atoms: _24  and  _26
REMARK   11  A    between atoms: _26  and  _27
REMARK   12  A    between atoms: _26  and  _29
REMARK   13  A    between atoms: _29  and  _30
REMARK   14  A    between atoms: _30  and  _31
REMARK   15  A    between atoms: _34  and  _36
REMARK   16  A    between atoms: _36  and  _37
REMARK   17  A    between atoms: _36  and  _39
REMARK   18  A    between atoms: _39  and  _40
REMARK   19  A    between atoms: _45  and  _47
REMARK   20  A    between atoms: _47  and  _48
REMARK   21  A    between atoms: _50  and  _52
REMARK   22  A    between atoms: _52  and  _53
REMARK   23  A    between atoms: _55  and  _57
REMARK   24  A    between atoms: _57  and  _58
REMARK   25  A    between atoms: _57  and  _60
REMARK   26  A    between atoms: _60  and  _61
REMARK   27  A    between atoms: _64  and  _66
REMARK   28  A    between atoms: _66  and  _67
REMARK   29  A    between atoms: _69  and  _71
REMARK   30  A    between atoms: _71  and  _72
REMARK   31  A    between atoms: _71  and  _74
REMARK   32  A    between atoms: _74  and  _75
REMARK   33  A    between atoms: _75  and  _76
REMARK   34  A    between atoms: _76  and  _77
REMARK   35  A    between atoms: _86  and  _88
REMARK   36  A    between atoms: _88  and  _89
REMARK   37  A    between atoms: _88  and  _91
REMARK   38  A    between atoms: _91  and  _92
REMARK   39  A    between atoms: _95  and  _97
REMARK   40  A    between atoms: _97  and  _98
REMARK   41  A    between atoms: _101  and  _103
REMARK   42  A    between atoms: _103  and  _104
REMARK   43  A    between atoms: _103  and  _106
REMARK   44  A    between atoms: _106  and  _107
REMARK   45  A    between atoms: _113  and  _115
REMARK   46  A    between atoms: _115  and  _116
REMARK   47  A    between atoms: _115  and  _118
REMARK   48  A    between atoms: _118  and  _119
REMARK   49  A    between atoms: _124  and  _125
REMARK   50  A    between atoms: _128  and  _129
REMARK   51  A    between atoms: _134  and  _136
REMARK   52  A    between atoms: _136  and  _137
REMARK   53  A    between atoms: _136  and  _139
REMARK   54  A    between atoms: _139  and  _140
REMARK   55  A    between atoms: _145  and  _147
REMARK   56  A    between atoms: _147  and  _148
REMARK   57  A    between atoms: _147  and  _150
REMARK   58  A    between atoms: _150  and  _151
REMARK   59  A    between atoms: _154  and  _156
REMARK   60  A    between atoms: _156  and  _157
REMARK   61  A    between atoms: _156  and  _159
REMARK   62  A    between atoms: _159  and  _160
REMARK   63  A    between atoms: _165  and  _167
REMARK   64  A    between atoms: _167  and  _168
REMARK   65  A    between atoms: _167  and  _170
REMARK   66  A    between atoms: _170  and  _171
REMARK   67  A    between atoms: _177  and  _179
REMARK   68  A    between atoms: _179  and  _180
REMARK   69  A    between atoms: _179  and  _182
REMARK   70  A    between atoms: _182  and  _183
REMARK   71  A    between atoms: _189  and  _191
REMARK   72  A    between atoms: _191  and  _192
REMARK   73  A    between atoms: _191  and  _194
REMARK   74  A    between atoms: _194  and  _195
REMARK   75  A    between atoms: _195  and  _196
REMARK   76  A    between atoms: _199  and  _201
REMARK   77  A    between atoms: _201  and  _202
REMARK   78  A    between atoms: _201  and  _204
REMARK   79  A    between atoms: _204  and  _205
REMARK   80  A    between atoms: _205  and  _206
REMARK   81  A    between atoms: _206  and  _207
REMARK   82  A    between atoms: _216  and  _218
REMARK   83  A    between atoms: _218  and  _219
REMARK   84  A    between atoms: _218  and  _221
REMARK   85  A    between atoms: _221  and  _222
REMARK   86  A    between atoms: _222  and  _223
REMARK   87  A    between atoms: _226  and  _228
REMARK   88  A    between atoms: _228  and  _229
REMARK   89  A    between atoms: _228  and  _231
REMARK   90  A    between atoms: _231  and  _232
REMARK   91  A    between atoms: _237  and  _239
REMARK   92  A    between atoms: _239  and  _240
REMARK   93  A    between atoms: _239  and  _242
REMARK   94  A    between atoms: _242  and  _243
REMARK   95  A    between atoms: _246  and  _248
REMARK   96  A    between atoms: _248  and  _249
REMARK   97  A    between atoms: _248  and  _251
REMARK   98  A    between atoms: _251  and  _252
REMARK   99  A    between atoms: _255  and  _257
REMARK  100  A    between atoms: _257  and  _258
REMARK  101  A    between atoms: _257  and  _260
REMARK  102  A    between atoms: _260  and  _261
REMARK  103  A    between atoms: _266  and  _268
REMARK  104  A    between atoms: _268  and  _269
REMARK  105  A    between atoms: _268  and  _271
REMARK  106  A    between atoms: _271  and  _272
REMARK  107  A    between atoms: _275  and  _277
REMARK  108  A    between atoms: _277  and  _278
REMARK  109  A    between atoms: _277  and  _280
REMARK  110  A    between atoms: _280  and  _281
REMARK  111  A    between atoms: _286  and  _288
REMARK  112  A    between atoms: _288  and  _289
REMARK  113  A    between atoms: _288  and  _291
REMARK  114  A    between atoms: _291  and  _292
REMARK  115  A    between atoms: _297  and  _299
REMARK  116  A    between atoms: _299  and  _300
REMARK  117  A    between atoms: _299  and  _302
REMARK  118  A    between atoms: _302  and  _303
REMARK  119  A    between atoms: _306  and  _308
REMARK  120  A    between atoms: _308  and  _309
REMARK  121  A    between atoms: _308  and  _311
REMARK  122  A    between atoms: _314  and  _316
REMARK  123  A    between atoms: _316  and  _317
REMARK  124  A    between atoms: _316  and  _319
REMARK  125  A    between atoms: _319  and  _320
REMARK  126  A    between atoms: _323  and  _325
REMARK  127  A    between atoms: _325  and  _326
REMARK  128  A    between atoms: _325  and  _328
REMARK  129  A    between atoms: _328  and  _329
REMARK  130  A    between atoms: _329  and  _330
REMARK  131  A    between atoms: _333  and  _335
REMARK  132  A    between atoms: _335  and  _336
REMARK  133  A    between atoms: _339  and  _341
REMARK  134  A    between atoms: _341  and  _342
REMARK  135  A    between atoms: _341  and  _344
REMARK  136  A    between atoms: _344  and  _345
REMARK  137  A    between atoms: _348  and  _350
REMARK  138  A    between atoms: _350  and  _351
REMARK  139  A    between atoms: _350  and  _353
REMARK  140  A    between atoms: _353  and  _354
REMARK  141  A    between atoms: _354  and  _355
REMARK  142  A    between atoms: _358  and  _360
REMARK  143  A    between atoms: _360  and  _361
REMARK  144  A    between atoms: _360  and  _363
REMARK  145  A    between atoms: _363  and  _364
REMARK  146  A    between atoms: _369  and  _371
REMARK  147  A    between atoms: _371  and  _372
REMARK  148  A    between atoms: _374  and  _376
REMARK  149  A    between atoms: _376  and  _377
REMARK  150  A    between atoms: _376  and  _379
REMARK  151  A    between atoms: _382  and  _384
REMARK  152  A    between atoms: _384  and  _385
REMARK  153  A    between atoms: _388  and  _390
REMARK  154  A    between atoms: _390  and  _391
REMARK  155  A    between atoms: _390  and  _393
REMARK  156  A    between atoms: _393  and  _394
REMARK  157  A    between atoms: _399  and  _401
REMARK  158  A    between atoms: _401  and  _402
REMARK  159  A    between atoms: _401  and  _404
REMARK  160  A    between atoms: _404  and  _405
REMARK  161  A    between atoms: _405  and  _406
REMARK  162  A    between atoms: _406  and  _407
REMARK  163  A    between atoms: _407  and  _408
REMARK  164  A    between atoms: _412  and  _414
REMARK  165  A    between atoms: _414  and  _415
REMARK  166  A    between atoms: _414  and  _417
REMARK  167  A    between atoms: _417  and  _418
REMARK  168  A    between atoms: _423  and  _425
REMARK  169  A    between atoms: _425  and  _426
REMARK  170  A    between atoms: _428  and  _430
REMARK  171  A    between atoms: _430  and  _431
REMARK  172  A    between atoms: _430  and  _433
REMARK  173  A    between atoms: _433  and  _434
REMARK  174  A    between atoms: _434  and  _435
REMARK  175  A    between atoms: _435  and  _436
REMARK  176  A    between atoms: _436  and  _437
REMARK  177  A    between atoms: _441  and  _443
REMARK  178  A    between atoms: _443  and  _444
REMARK  179  A    between atoms: _443  and  _446
REMARK  180  A    between atoms: _446  and  _447
REMARK  181  A    between atoms: _447  and  _448
REMARK  182  A    between atoms: _448  and  _449
REMARK  183  A    between atoms: _458  and  _460
REMARK  184  A    between atoms: _460  and  _461
REMARK  185  A    between atoms: _460  and  _463
REMARK  186  A    between atoms: _463  and  _464
REMARK  187  A    between atoms: _469  and  _470
REMARK  188  A    between atoms: _472  and  _474
REMARK  189  A    between atoms: _474  and  _475
REMARK  190  A    between atoms: _474  and  _477
REMARK  191  A    between atoms: _477  and  _478
REMARK  192  A    between atoms: _478  and  _479
REMARK  193  A    between atoms: _479  and  _480
REMARK  194  A    between atoms: _480  and  _481
REMARK  195  A    between atoms: _485  and  _487
REMARK  196  A    between atoms: _487  and  _488
REMARK  197  A    between atoms: _487  and  _490
REMARK  198  A    between atoms: _490  and  _491
REMARK  199  A    between atoms: _494  and  _496
REMARK  200  A    between atoms: _496  and  _497
REMARK  201  A    between atoms: _496  and  _499
REMARK  202  A    between atoms: _499  and  _500
REMARK  203  A    between atoms: _500  and  _501
REMARK  204  A    between atoms: _504  and  _506
REMARK  205  A    between atoms: _506  and  _507
REMARK  206  A    between atoms: _510  and  _512
REMARK  207  A    between atoms: _512  and  _513
REMARK  208  A    between atoms: _512  and  _515
REMARK  209  A    between atoms: _515  and  _516
REMARK  210  A    between atoms: _518  and  _520
REMARK  211  A    between atoms: _520  and  _521
REMARK  212  A    between atoms: _523  and  _525
REMARK  213  A    between atoms: _525  and  _526
REMARK  214  A    between atoms: _525  and  _528
REMARK  215  A    between atoms: _528  and  _529
REMARK  216  A    between atoms: _532  and  _534
REMARK  217  A    between atoms: _534  and  _535
REMARK  218  A    between atoms: _537  and  _539
REMARK  219  A    between atoms: _539  and  _540
REMARK  220  A    between atoms: _539  and  _542
REMARK  221  A    between atoms: _542  and  _543
REMARK  222  A    between atoms: _548  and  _550
REMARK  223  A    between atoms: _550  and  _551
REMARK  224  A    between atoms: _550  and  _553
REMARK  225  A    between atoms: _553  and  _554
REMARK  226  A    between atoms: _554  and  _555
REMARK  227  A    between atoms: _562  and  _563
REMARK  228  A    between atoms: _563  and  _579
REMARK  229  A    between atoms: _564  and  _566
REMARK  230  A    between atoms: _566  and  _567
REMARK  231  A    between atoms: _567  and  _568
REMARK  232  A    between atoms: _572  and  _574
REMARK  233  A    between atoms: _574  and  _575
REMARK  234  A    between atoms: _574  and  _582
REMARK  235  A    between atoms: _575  and  _576
REMARK  236  A    between atoms: _576  and  _577
REMARK  237  A    between atoms: _577  and  _578
REMARK  238  A    between atoms: _578  and  _579
REMARK  239  A    between atoms: _584  and  _586
REMARK  240  A    between atoms: _586  and  _587
REMARK  241  A    between atoms: _586  and  _589
REMARK  242  A    between atoms: _589  and  _590
REMARK  243  A    between atoms: _593  and  _595
REMARK  244  A    between atoms: _595  and  _596
REMARK  245  A    between atoms: _598  and  _600
REMARK  246  A    between atoms: _600  and  _601
REMARK  247  A    between atoms: _604  and  _606
REMARK  248  A    between atoms: _606  and  _607
REMARK  249  A    between atoms: _606  and  _609
REMARK  250  A    between atoms: _609  and  _610
REMARK  251  A    between atoms: _615  and  _616
REMARK                            x       y       z     vdW  Elec       q    Type
REMARK                         _______ _______ _______ _____ _____    ______ ____
ROOT
ATOM      1  O   HOH     1      34.957  30.884  28.677  0.00  0.00    +0.000 OA
ENDROOT
TORSDOF 0
REMARK  Name = ../refined-set-2016/3l7d/3l7d_pocket.pdb
REMARK  251 active torsions:
REMARK  status: ('A' for Active; 'I' for Inactive)
REMARK    1  A    between atoms: _1  and  _3
REMARK    2  A    between atoms: _3  and  _4
REMARK    3  A    between atoms: _3  and  _6
REMARK    4  A    between atoms: _6  and  _7
REMARK    5  A    between atoms: _12  and  _13
REMARK    6  A    between atoms: _15  and  _17
REMARK    7  A    between atoms: _17  and  _18
REMARK    8  A    between atoms: _17  and  _20
REMARK    9  A    between atoms: _20  and  _21
REMARK   10  A    between atoms: _24  and  _26
REMARK   11  A    between atoms: _26  and  _27
REMARK   12  A    between atoms: _26  and  _29
REMARK   13  A    between atoms: _29  and  _30
REMARK   14  A    between atoms: _30  and  _31
REMARK   15  A    between atoms: _34  and  _36
REMARK   16  A    between atoms: _36  and  _37
REMARK   17  A    between atoms: _36  and  _39
REMARK   18  A    between atoms: _39  and  _40
REMARK   19  A    between atoms: _45  and  _47
REMARK   20  A    between atoms: _47  and  _48
REMARK   21  A    between atoms: _50  and  _52
REMARK   22  A    between atoms: _52  and  _53
REMARK   23  A    between atoms: _55  and  _57
REMARK   24  A    between atoms: _57  and  _58
REMARK   25  A    between atoms: _57  and  _60
REMARK   26  A    between atoms: _60  and  _61
REMARK   27  A    between atoms: _64  and  _66
REMARK   28  A    between atoms: _66  and  _67
REMARK   29  A    between atoms: _69  and  _71
REMARK   30  A    between atoms: _71  and  _72
REMARK   31  A    between atoms: _71  and  _74
REMARK   32  A    between atoms: _74  and  _75
REMARK   33  A    between atoms: _75  and  _76
REMARK   34  A    between atoms: _76  and  _77
REMARK   35  A    between atoms: _86  and  _88
REMARK   36  A    between atoms: _88  and  _89
REMARK   37  A    between atoms: _88  and  _91
REMARK   38  A    between atoms: _91  and  _92
REMARK   39  A    between atoms: _95  and  _97
REMARK   40  A    between atoms: _97  and  _98
REMARK   41  A    between atoms: _101  and  _103
REMARK   42  A    between atoms: _103  and  _104
REMARK   43  A    between atoms: _103  and  _106
REMARK   44  A    between atoms: _106  and  _107
REMARK   45  A    between atoms: _113  and  _115
REMARK   46  A    between atoms: _115  and  _116
REMARK   47  A    between atoms: _115  and  _118
REMARK   48  A    between atoms: _118  and  _119
REMARK   49  A    between atoms: _124  and  _125
REMARK   50  A    between atoms: _128  and  _129
REMARK   51  A    between atoms: _134  and  _136
REMARK   52  A    between atoms: _136  and  _137
REMARK   53  A    between atoms: _136  and  _139
REMARK   54  A    between atoms: _139  and  _140
REMARK   55  A    between atoms: _145  and  _147
REMARK   56  A    between atoms: _147  and  _148
REMARK   57  A    between atoms: _147  and  _150
REMARK   58  A    between atoms: _150  and  _151
REMARK   59  A    between atoms: _154  and  _156
REMARK   60  A    between atoms: _156  and  _157
REMARK   61  A    between atoms: _156  and  _159
REMARK   62  A    between atoms: _159  and  _160
REMARK   63  A    between atoms: _165  and  _167
REMARK   64  A    between atoms: _167  and  _168
REMARK   65  A    between atoms: _167  and  _170
REMARK   66  A    between atoms: _170  and  _171
REMARK   67  A    between atoms: _177  and  _179
REMARK   68  A    between atoms: _179  and  _180
REMARK   69  A    between atoms: _179  and  _182
REMARK   70  A    between atoms: _182  and  _183
REMARK   71  A    between atoms: _189  and  _191
REMARK   72  A    between atoms: _191  and  _192
REMARK   73  A    between atoms: _191  and  _194
REMARK   74  A    between atoms: _194  and  _195
REMARK   75  A    between atoms: _195  and  _196
REMARK   76  A    between atoms: _199  and  _201
REMARK   77  A    between atoms: _201  and  _202
REMARK   78  A    between atoms: _201  and  _204
REMARK   79  A    between atoms: _204  and  _205
REMARK   80  A    between atoms: _205  and  _206
REMARK   81  A    between atoms: _206  and  _207
REMARK   82  A    between atoms: _216  and  _218
REMARK   83  A    between atoms: _218  and  _219
REMARK   84  A    between atoms: _218  and  _221
REMARK   85  A    between atoms: _221  and  _222
REMARK   86  A    between atoms: _222  and  _223
REMARK   87  A    between atoms: _226  and  _228
REMARK   88  A    between atoms: _228  and  _229
REMARK   89  A    between atoms: _228  and  _231
REMARK   90  A    between atoms: _231  and  _232
REMARK   91  A    between atoms: _237  and  _239
REMARK   92  A    between atoms: _239  and  _240
REMARK   93  A    between atoms: _239  and  _242
REMARK   94  A    between atoms: _242  and  _243
REMARK   95  A    between atoms: _246  and  _248
REMARK   96  A    between atoms: _248  and  _249
REMARK   97  A    between atoms: _248  and  _251
REMARK   98  A    between atoms: _251  and  _252
REMARK   99  A    between atoms: _255  and  _257
REMARK  100  A    between atoms: _257  and  _258
REMARK  101  A    between atoms: _257  and  _260
REMARK  102  A    between atoms: _260  and  _261
REMARK  103  A    between atoms: _266  and  _268
REMARK  104  A    between atoms: _268  and  _269
REMARK  105  A    between atoms: _268  and  _271
REMARK  106  A    between atoms: _271  and  _272
REMARK  107  A    between atoms: _275  and  _277
REMARK  108  A    between atoms: _277  and  _278
REMARK  109  A    between atoms: _277  and  _280
REMARK  110  A    between atoms: _280  and  _281
REMARK  111  A    between atoms: _286  and  _288
REMARK  112  A    between atoms: _288  and  _289
REMARK  113  A    between atoms: _288  and  _291
REMARK  114  A    between atoms: _291  and  _292
REMARK  115  A    between atoms: _297  and  _299
REMARK  116  A    between atoms: _299  and  _300
REMARK  117  A    between atoms: _299  and  _302
REMARK  118  A    between atoms: _302  and  _303
REMARK  119  A    between atoms: _306  and  _308
REMARK  120  A    between atoms: _308  and  _309
REMARK  121  A    between atoms: _308  and  _311
REMARK  122  A    between atoms: _314  and  _316
REMARK  123  A    between atoms: _316  and  _317
REMARK  124  A    between atoms: _316  and  _319
REMARK  125  A    between atoms: _319  and  _320
REMARK  126  A    between atoms: _323  and  _325
REMARK  127  A    between atoms: _325  and  _326
REMARK  128  A    between atoms: _325  and  _328
REMARK  129  A    between atoms: _328  and  _329
REMARK  130  A    between atoms: _329  and  _330
REMARK  131  A    between atoms: _333  and  _335
REMARK  132  A    between atoms: _335  and  _336
REMARK  133  A    between atoms: _339  and  _341
REMARK  134  A    between atoms: _341  and  _342
REMARK  135  A    between atoms: _341  and  _344
REMARK  136  A    between atoms: _344  and  _345
REMARK  137  A    between atoms: _348  and  _350
REMARK  138  A    between atoms: _350  and  _351
REMARK  139  A    between atoms: _350  and  _353
REMARK  140  A    between atoms: _353  and  _354
REMARK  141  A    between atoms: _354  and  _355
REMARK  142  A    between atoms: _358  and  _360
REMARK  143  A    between atoms: _360  and  _361
REMARK  144  A    between atoms: _360  and  _363
REMARK  145  A    between atoms: _363  and  _364
REMARK  146  A    between atoms: _369  and  _371
REMARK  147  A    between atoms: _371  and  _372
REMARK  148  A    between atoms: _374  and  _376
REMARK  149  A    between atoms: _376  and  _377
REMARK  150  A    between atoms: _376  and  _379
REMARK  151  A    between atoms: _382  and  _384
REMARK  152  A    between atoms: _384  and  _385
REMARK  153  A    between atoms: _388  and  _390
REMARK  154  A    between atoms: _390  and  _391
REMARK  155  A    between atoms: _390  and  _393
REMARK  156  A    between atoms: _393  and  _394
REMARK  157  A    between atoms: _399  and  _401
REMARK  158  A    between atoms: _401  and  _402
REMARK  159  A    between atoms: _401  and  _404
REMARK  160  A    between atoms: _404  and  _405
REMARK  161  A    between atoms: _405  and  _406
REMARK  162  A    between atoms: _406  and  _407
REMARK  163  A    between atoms: _407  and  _408
REMARK  164  A    between atoms: _412  and  _414
REMARK  165  A    between atoms: _414  and  _415
REMARK  166  A    between atoms: _414  and  _417
REMARK  167  A    between atoms: _417  and  _418
REMARK  168  A    between atoms: _423  and  _425
REMARK  169  A    between atoms: _425  and  _426
REMARK  170  A    between atoms: _428  and  _430
REMARK  171  A    between atoms: _430  and  _431
REMARK  172  A    between atoms: _430  and  _433
REMARK  173  A    between atoms: _433  and  _434
REMARK  174  A    between atoms: _434  and  _435
REMARK  175  A    between atoms: _435  and  _436
REMARK  176  A    between atoms: _436  and  _437
REMARK  177  A    between atoms: _441  and  _443
REMARK  178  A    between atoms: _443  and  _444
REMARK  179  A    between atoms: _443  and  _446
REMARK  180  A    between atoms: _446  and  _447
REMARK  181  A    between atoms: _447  and  _448
REMARK  182  A    between atoms: _448  and  _449
REMARK  183  A    between atoms: _458  and  _460
REMARK  184  A    between atoms: _460  and  _461
REMARK  185  A    between atoms: _460  and  _463
REMARK  186  A    between atoms: _463  and  _464
REMARK  187  A    between atoms: _469  and  _470
REMARK  188  A    between atoms: _472  and  _474
REMARK  189  A    between atoms: _474  and  _475
REMARK  190  A    between atoms: _474  and  _477
REMARK  191  A    between atoms: _477  and  _478
REMARK  192  A    between atoms: _478  and  _479
REMARK  193  A    between atoms: _479  and  _480
REMARK  194  A    between atoms: _480  and  _481
REMARK  195  A    between atoms: _485  and  _487
REMARK  196  A    between atoms: _487  and  _488
REMARK  197  A    between atoms: _487  and  _490
REMARK  198  A    between atoms: _490  and  _491
REMARK  199  A    between atoms: _494  and  _496
REMARK  200  A    between atoms: _496  and  _497
REMARK  201  A    between atoms: _496  and  _499
REMARK  202  A    between atoms: _499  and  _500
REMARK  203  A    between atoms: _500  and  _501
REMARK  204  A    between atoms: _504  and  _506
REMARK  205  A    between atoms: _506  and  _507
REMARK  206  A    between atoms: _510  and  _512
REMARK  207  A    between atoms: _512  and  _513
REMARK  208  A    between atoms: _512  and  _515
REMARK  209  A    between atoms: _515  and  _516
REMARK  210  A    between atoms: _518  and  _520
REMARK  211  A    between atoms: _520  and  _521
REMARK  212  A    between atoms: _523  and  _525
REMARK  213  A    between atoms: _525  and  _526
REMARK  214  A    between atoms: _525  and  _528
REMARK  215  A    between atoms: _528  and  _529
REMARK  216  A    between atoms: _532  and  _534
REMARK  217  A    between atoms: _534  and  _535
REMARK  218  A    between atoms: _537  and  _539
REMARK  219  A    between atoms: _539  and  _540
REMARK  220  A    between atoms: _539  and  _542
REMARK  221  A    between atoms: _542  and  _543
REMARK  222  A    between atoms: _548  and  _550
REMARK  223  A    between atoms: _550  and  _551
REMARK  224  A    between atoms: _550  and  _553
REMARK  225  A    between atoms: _553  and  _554
REMARK  226  A    between atoms: _554  and  _555
REMARK  227  A    between atoms: _562  and  _563
REMARK  228  A    between atoms: _563  and  _579
REMARK  229  A    between atoms: _564  and  _566
REMARK  230  A    between atoms: _566  and  _567
REMARK  231  A    between atoms: _567  and  _568
REMARK  232  A    between atoms: _572  and  _574
REMARK  233  A    between atoms: _574  and  _575
REMARK  234  A    between atoms: _574  and  _582
REMARK  235  A    between atoms: _575  and  _576
REMARK  236  A    between atoms: _576  and  _577
REMARK  237  A    between atoms: _577  and  _578
REMARK  238  A    between atoms: _578  and  _579
REMARK  239  A    between atoms: _584  and  _586
REMARK  240  A    between atoms: _586  and  _587
REMARK  241  A    between atoms: _586  and  _589
REMARK  242  A    between atoms: _589  and  _590
REMARK  243  A    between atoms: _593  and  _595
REMARK  244  A    between atoms: _595  and  _596
REMARK  245  A    between atoms: _598  and  _600
REMARK  246  A    between atoms: _600  and  _601
REMARK  247  A    between atoms: _604  and  _606
REMARK  248  A    between atoms: _606  and  _607
REMARK  249  A    between atoms: _606  and  _609
REMARK  250  A    between atoms: _609  and  _610
REMARK  251  A    between atoms: _615  and  _616
REMARK                            x       y       z     vdW  Elec       q    Type
REMARK                         _______ _______ _______ _____ _____    ______ ____
ROOT
ATOM      1  O   HOH     1      32.474  30.368  28.672  0.00  0.00    +0.000 OA
ENDROOT
TORSDOF 0
