REMARK  Name = ../refined-set-2016/3ge7/3ge7_pocket.pdb
REMARK  215 active torsions:
REMARK  status: ('A' for Active; 'I' for Inactive)
REMARK    1  A    between atoms: _1  and  _3
REMARK    2  A    between atoms: _3  and  _4
REMARK    3  A    between atoms: _3  and  _6
REMARK    4  A    between atoms: _6  and  _7
REMARK    5  A    between atoms: _7  and  _8
REMARK    6  A    between atoms: _11  and  _12
REMARK    7  A    between atoms: _17  and  _19
REMARK    8  A    between atoms: _19  and  _20
REMARK    9  A    between atoms: _19  and  _22
REMARK   10  A    between atoms: _25  and  _27
REMARK   11  A    between atoms: _27  and  _28
REMARK   12  A    between atoms: _30  and  _32
REMARK   13  A    between atoms: _32  and  _33
REMARK   14  A    between atoms: _32  and  _35
REMARK   15  A    between atoms: _35  and  _36
REMARK   16  A    between atoms: _39  and  _41
REMARK   17  A    between atoms: _41  and  _42
REMARK   18  A    between atoms: _45  and  _47
REMARK   19  A    between atoms: _47  and  _48
REMARK   20  A    between atoms: _47  and  _50
REMARK   21  A    between atoms: _50  and  _51
REMARK   22  A    between atoms: _51  and  _52
REMARK   23  A    between atoms: _52  and  _53
REMARK   24  A    between atoms: _53  and  _54
REMARK   25  A    between atoms: _58  and  _60
REMARK   26  A    between atoms: _60  and  _61
REMARK   27  A    between atoms: _60  and  _63
REMARK   28  A    between atoms: _63  and  _64
REMARK   29  A    between atoms: _67  and  _69
REMARK   30  A    between atoms: _69  and  _70
REMARK   31  A    between atoms: _72  and  _74
REMARK   32  A    between atoms: _74  and  _75
REMARK   33  A    between atoms: _74  and  _77
REMARK   34  A    between atoms: _77  and  _78
REMARK   35  A    between atoms: _83  and  _85
REMARK   36  A    between atoms: _85  and  _86
REMARK   37  A    between atoms: _85  and  _88
REMARK   38  A    between atoms: _88  and  _89
REMARK   39  A    between atoms: _92  and  _94
REMARK   40  A    between atoms: _94  and  _95
REMARK   41  A    between atoms: _94  and  _97
REMARK   42  A    between atoms: _97  and  _98
REMARK   43  A    between atoms: _103  and  _104
REMARK   44  A    between atoms: _106  and  _108
REMARK   45  A    between atoms: _108  and  _109
REMARK   46  A    between atoms: _108  and  _111
REMARK   47  A    between atoms: _111  and  _112
REMARK   48  A    between atoms: _117  and  _119
REMARK   49  A    between atoms: _119  and  _120
REMARK   50  A    between atoms: _119  and  _122
REMARK   51  A    between atoms: _122  and  _123
REMARK   52  A    between atoms: _126  and  _128
REMARK   53  A    between atoms: _128  and  _129
REMARK   54  A    between atoms: _128  and  _131
REMARK   55  A    between atoms: _131  and  _132
REMARK   56  A    between atoms: _135  and  _137
REMARK   57  A    between atoms: _137  and  _138
REMARK   58  A    between atoms: _137  and  _140
REMARK   59  A    between atoms: _140  and  _141
REMARK   60  A    between atoms: _144  and  _146
REMARK   61  A    between atoms: _146  and  _147
REMARK   62  A    between atoms: _146  and  _149
REMARK   63  A    between atoms: _149  and  _150
REMARK   64  A    between atoms: _153  and  _155
REMARK   65  A    between atoms: _155  and  _156
REMARK   66  A    between atoms: _155  and  _158
REMARK   67  A    between atoms: _158  and  _159
REMARK   68  A    between atoms: _161  and  _163
REMARK   69  A    between atoms: _163  and  _164
REMARK   70  A    between atoms: _166  and  _168
REMARK   71  A    between atoms: _168  and  _169
REMARK   72  A    between atoms: _171  and  _173
REMARK   73  A    between atoms: _173  and  _174
REMARK   74  A    between atoms: _173  and  _176
REMARK   75  A    between atoms: _176  and  _177
REMARK   76  A    between atoms: _182  and  _183
REMARK   77  A    between atoms: _185  and  _187
REMARK   78  A    between atoms: _187  and  _188
REMARK   79  A    between atoms: _187  and  _190
REMARK   80  A    between atoms: _190  and  _191
REMARK   81  A    between atoms: _191  and  _192
REMARK   82  A    between atoms: _197  and  _199
REMARK   83  A    between atoms: _199  and  _200
REMARK   84  A    between atoms: _203  and  _205
REMARK   85  A    between atoms: _205  and  _206
REMARK   86  A    between atoms: _205  and  _208
REMARK   87  A    between atoms: _208  and  _209
REMARK   88  A    between atoms: _209  and  _210
REMARK   89  A    between atoms: _212  and  _214
REMARK   90  A    between atoms: _214  and  _215
REMARK   91  A    between atoms: _218  and  _220
REMARK   92  A    between atoms: _220  and  _221
REMARK   93  A    between atoms: _220  and  _223
REMARK   94  A    between atoms: _223  and  _224
REMARK   95  A    between atoms: _230  and  _232
REMARK   96  A    between atoms: _232  and  _233
REMARK   97  A    between atoms: _232  and  _235
REMARK   98  A    between atoms: _235  and  _236
REMARK   99  A    between atoms: _239  and  _241
REMARK  100  A    between atoms: _241  and  _242
REMARK  101  A    between atoms: _241  and  _244
REMARK  102  A    between atoms: _244  and  _245
REMARK  103  A    between atoms: _245  and  _246
REMARK  104  A    between atoms: _249  and  _251
REMARK  105  A    between atoms: _251  and  _252
REMARK  106  A    between atoms: _251  and  _254
REMARK  107  A    between atoms: _256  and  _258
REMARK  108  A    between atoms: _258  and  _259
REMARK  109  A    between atoms: _258  and  _261
REMARK  110  A    between atoms: _261  and  _262
REMARK  111  A    between atoms: _265  and  _267
REMARK  112  A    between atoms: _267  and  _268
REMARK  113  A    between atoms: _267  and  _270
REMARK  114  A    between atoms: _270  and  _271
REMARK  115  A    between atoms: _273  and  _275
REMARK  116  A    between atoms: _275  and  _276
REMARK  117  A    between atoms: _275  and  _278
REMARK  118  A    between atoms: _278  and  _279
REMARK  119  A    between atoms: _282  and  _284
REMARK  120  A    between atoms: _284  and  _285
REMARK  121  A    between atoms: _284  and  _287
REMARK  122  A    between atoms: _287  and  _288
REMARK  123  A    between atoms: _288  and  _289
REMARK  124  A    between atoms: _294  and  _296
REMARK  125  A    between atoms: _296  and  _297
REMARK  126  A    between atoms: _296  and  _299
REMARK  127  A    between atoms: _299  and  _300
REMARK  128  A    between atoms: _300  and  _301
REMARK  129  A    between atoms: _306  and  _308
REMARK  130  A    between atoms: _308  and  _309
REMARK  131  A    between atoms: _311  and  _313
REMARK  132  A    between atoms: _313  and  _314
REMARK  133  A    between atoms: _313  and  _316
REMARK  134  A    between atoms: _316  and  _317
REMARK  135  A    between atoms: _319  and  _321
REMARK  136  A    between atoms: _321  and  _322
REMARK  137  A    between atoms: _321  and  _324
REMARK  138  A    between atoms: _324  and  _325
REMARK  139  A    between atoms: _325  and  _326
REMARK  140  A    between atoms: _326  and  _327
REMARK  141  A    between atoms: _336  and  _338
REMARK  142  A    between atoms: _338  and  _339
REMARK  143  A    between atoms: _342  and  _344
REMARK  144  A    between atoms: _344  and  _345
REMARK  145  A    between atoms: _344  and  _347
REMARK  146  A    between atoms: _350  and  _352
REMARK  147  A    between atoms: _352  and  _353
REMARK  148  A    between atoms: _355  and  _357
REMARK  149  A    between atoms: _357  and  _358
REMARK  150  A    between atoms: _360  and  _362
REMARK  151  A    between atoms: _362  and  _363
REMARK  152  A    between atoms: _362  and  _365
REMARK  153  A    between atoms: _365  and  _366
REMARK  154  A    between atoms: _369  and  _371
REMARK  155  A    between atoms: _371  and  _372
REMARK  156  A    between atoms: _375  and  _377
REMARK  157  A    between atoms: _377  and  _378
REMARK  158  A    between atoms: _377  and  _380
REMARK  159  A    between atoms: _383  and  _385
REMARK  160  A    between atoms: _385  and  _386
REMARK  161  A    between atoms: _388  and  _390
REMARK  162  A    between atoms: _390  and  _391
REMARK  163  A    between atoms: _390  and  _393
REMARK  164  A    between atoms: _393  and  _394
REMARK  165  A    between atoms: _394  and  _395
REMARK  166  A    between atoms: _398  and  _400
REMARK  167  A    between atoms: _400  and  _401
REMARK  168  A    between atoms: _400  and  _403
REMARK  169  A    between atoms: _403  and  _404
REMARK  170  A    between atoms: _404  and  _405
REMARK  171  A    between atoms: _407  and  _409
REMARK  172  A    between atoms: _409  and  _410
REMARK  173  A    between atoms: _409  and  _412
REMARK  174  A    between atoms: _412  and  _413
REMARK  175  A    between atoms: _418  and  _419
REMARK  176  A    between atoms: _421  and  _423
REMARK  177  A    between atoms: _423  and  _424
REMARK  178  A    between atoms: _423  and  _426
REMARK  179  A    between atoms: _426  and  _427
REMARK  180  A    between atoms: _430  and  _432
REMARK  181  A    between atoms: _432  and  _433
REMARK  182  A    between atoms: _432  and  _435
REMARK  183  A    between atoms: _435  and  _436
REMARK  184  A    between atoms: _436  and  _437
REMARK  185  A    between atoms: _439  and  _441
REMARK  186  A    between atoms: _441  and  _442
REMARK  187  A    between atoms: _444  and  _446
REMARK  188  A    between atoms: _446  and  _447
REMARK  189  A    between atoms: _446  and  _449
REMARK  190  A    between atoms: _452  and  _454
REMARK  191  A    between atoms: _454  and  _455
REMARK  192  A    between atoms: _457  and  _459
REMARK  193  A    between atoms: _459  and  _460
REMARK  194  A    between atoms: _459  and  _462
REMARK  195  A    between atoms: _462  and  _463
REMARK  196  A    between atoms: _469  and  _471
REMARK  197  A    between atoms: _471  and  _472
REMARK  198  A    between atoms: _471  and  _474
REMARK  199  A    between atoms: _474  and  _475
REMARK  200  A    between atoms: _478  and  _480
REMARK  201  A    between atoms: _480  and  _481
REMARK  202  A    between atoms: _480  and  _483
REMARK  203  A    between atoms: _485  and  _487
REMARK  204  A    between atoms: _487  and  _488
REMARK  205  A    between atoms: _487  and  _490
REMARK  206  A    between atoms: _493  and  _495
REMARK  207  A    between atoms: _495  and  _496
REMARK  208  A    between atoms: _495  and  _498
REMARK  209  A    between atoms: _498  and  _499
REMARK  210  A    between atoms: _502  and  _504
REMARK  211  A    between atoms: _504  and  _505
REMARK  212  A    between atoms: _504  and  _507
REMARK  213  A    between atoms: _507  and  _508
REMARK  214  A    between atoms: _508  and  _509
REMARK  215  A    between atoms: _509  and  _510
REMARK                            x       y       z     vdW  Elec       q    Type
REMARK                         _______ _______ _______ _____ _____    ______ ____
ROOT
ATOM      1  CA  VAL A   3       9.780  10.351  12.797  0.00  0.00    +0.149 C 
ENDROOT
BRANCH   1   4
ATOM      2  C   PRO A   2      10.568   8.128  12.302  0.00  0.00    +0.241 C 
ATOM      3  O   PRO A   2      10.048   7.647  13.313  0.00  0.00    -0.273 OA
ATOM      4  N   VAL A   3      10.451   9.410  11.920  0.00  0.00    -0.297 N 
ATOM      5  H   VAL A   3      10.837   9.724  11.007  0.00  0.00    +0.150 HD
BRANCH   2  12
ATOM      6  C   MET A   1      12.977   6.545  13.067  0.00  0.00    +0.242 C 
ATOM      7  O   MET A   1      13.291   7.732  13.280  0.00  0.00    -0.273 OA
ATOM      8  N   PRO A   2      12.104   6.224  12.105  0.00  0.00    -0.272 N 
ATOM      9  CD  PRO A   2      11.720   4.907  11.649  0.00  0.00    +0.094 C 
ATOM     10  CG  PRO A   2      11.097   5.127  10.295  0.00  0.00    +0.024 C 
ATOM     11  CB  PRO A   2      10.466   6.474  10.432  0.00  0.00    +0.031 C 
ATOM     12  CA  PRO A   2      11.393   7.266  11.355  0.00  0.00    +0.152 C 
BRANCH   6  13
ATOM     13  CA  MET A   1      13.617   5.455  13.910  0.00  0.00    +0.146 C 
BRANCH  13  14
ATOM     14  N   MET A   1      15.005   5.236  13.545  0.00  0.00    -0.238 NA
ATOM     15  H   MET A   1      15.688   5.958  13.851  0.00  0.00    +0.142 HD
ENDBRANCH  13  14
BRANCH  13  16
ATOM     16  CB  MET A   1      13.536   5.906  15.368  0.00  0.00    +0.038 C 
BRANCH  16  17
ATOM     17  CG  MET A   1      14.115   4.968  16.401  0.00  0.00    +0.060 C 
BRANCH  17  18
ATOM     18  SD  MET A   1      13.666   5.540  18.079  0.00  0.00    -0.139 S 
ATOM     19  CE  MET A   1      15.164   6.577  18.254  0.00  0.00    +0.069 C 
ENDBRANCH  17  18
ENDBRANCH  16  17
ENDBRANCH  13  16
ENDBRANCH   6  13
ENDBRANCH   2  12
ENDBRANCH   1   4
BRANCH   1  20
ATOM     20  C   VAL A   3       8.359  10.667  12.362  0.00  0.00    +0.241 C 
ATOM     21  N   GLY A   4       7.444  10.551  13.337  0.00  0.00    -0.295 N 
ATOM     22  H   GLY A   4       7.630  10.130  14.270  0.00  0.00    +0.150 HD
ATOM     23  O   VAL A   3       8.108  10.987  11.204  0.00  0.00    -0.273 OA
BRANCH  21  24
ATOM     24  CA  GLY A   4       6.156  11.092  12.919  0.00  0.00    +0.176 C 
BRANCH  24  25
ATOM     25  C   GLY A   4       6.095  12.574  13.216  0.00  0.00    +0.243 C 
ATOM     26  O   GLY A   4       6.898  13.300  13.771  0.00  0.00    -0.273 OA
ATOM     27  N   THR A   5       4.965  13.101  12.812  0.00  0.00    -0.295 N 
ATOM     28  H   THR A   5       4.385  12.646  12.078  0.00  0.00    +0.150 HD
BRANCH  27  29
ATOM     29  CA  THR A   5       4.552  14.372  13.447  0.00  0.00    +0.176 C 
BRANCH  29  30
ATOM     30  C   THR A   5       3.036  14.315  13.383  0.00  0.00    +0.243 C 
ATOM     31  N   ALA A   6       2.363  14.674  14.464  0.00  0.00    -0.298 N 
ATOM     32  H   ALA A   6       2.855  14.975  15.329  0.00  0.00    +0.150 HD
ATOM     33  O   THR A   5       2.486  13.869  12.376  0.00  0.00    -0.273 OA
BRANCH  31  34
ATOM     34  CA  ALA A   6       0.908  14.633  14.400  0.00  0.00    +0.137 C 
ATOM     35  CB  ALA A   6       0.376  15.571  13.334  0.00  0.00    +0.030 C 
BRANCH  34  36
ATOM     36  C   ALA A   6       0.375  13.216  14.127  0.00  0.00    +0.227 C 
ATOM     37  O   ALA A   6      -0.580  13.131  13.367  0.00  0.00    -0.286 OA
ENDBRANCH  34  36
ENDBRANCH  31  34
ENDBRANCH  29  30
BRANCH  29  38
ATOM     38  CB  THR A   5       5.244  15.580  12.827  0.00  0.00    +0.137 C 
ATOM     39  CG2 THR A   5       4.755  16.890  13.416  0.00  0.00    +0.034 C 
BRANCH  38  40
ATOM     40  OG1 THR A   5       6.665  15.456  13.019  0.00  0.00    -0.382 OA
ATOM     41  HG1 THR A   5       6.985  14.627  12.582  0.00  0.00    +0.210 HD
ENDBRANCH  38  40
ENDBRANCH  29  38
ENDBRANCH  27  29
ENDBRANCH  24  25
ENDBRANCH  21  24
ENDBRANCH   1  20
BRANCH   1  42
ATOM     42  CB  VAL A   3      10.554  11.666  12.905  0.00  0.00    +0.027 C 
ATOM     43  CG2 VAL A   3       9.813  12.692  13.762  0.00  0.00    +0.002 C 
ATOM     44  CG1 VAL A   3      11.931  11.363  13.509  0.00  0.00    +0.002 C 
ENDBRANCH   1  42
TORSDOF 17
REMARK  Name = ../refined-set-2016/3ge7/3ge7_pocket.pdb
REMARK  215 active torsions:
REMARK  status: ('A' for Active; 'I' for Inactive)
REMARK    1  A    between atoms: _1  and  _3
REMARK    2  A    between atoms: _3  and  _4
REMARK    3  A    between atoms: _3  and  _6
REMARK    4  A    between atoms: _6  and  _7
REMARK    5  A    between atoms: _7  and  _8
REMARK    6  A    between atoms: _11  and  _12
REMARK    7  A    between atoms: _17  and  _19
REMARK    8  A    between atoms: _19  and  _20
REMARK    9  A    between atoms: _19  and  _22
REMARK   10  A    between atoms: _25  and  _27
REMARK   11  A    between atoms: _27  and  _28
REMARK   12  A    between atoms: _30  and  _32
REMARK   13  A    between atoms: _32  and  _33
REMARK   14  A    between atoms: _32  and  _35
REMARK   15  A    between atoms: _35  and  _36
REMARK   16  A    between atoms: _39  and  _41
REMARK   17  A    between atoms: _41  and  _42
REMARK   18  A    between atoms: _45  and  _47
REMARK   19  A    between atoms: _47  and  _48
REMARK   20  A    between atoms: _47  and  _50
REMARK   21  A    between atoms: _50  and  _51
REMARK   22  A    between atoms: _51  and  _52
REMARK   23  A    between atoms: _52  and  _53
REMARK   24  A    between atoms: _53  and  _54
REMARK   25  A    between atoms: _58  and  _60
REMARK   26  A    between atoms: _60  and  _61
REMARK   27  A    between atoms: _60  and  _63
REMARK   28  A    between atoms: _63  and  _64
REMARK   29  A    between atoms: _67  and  _69
REMARK   30  A    between atoms: _69  and  _70
REMARK   31  A    between atoms: _72  and  _74
REMARK   32  A    between atoms: _74  and  _75
REMARK   33  A    between atoms: _74  and  _77
REMARK   34  A    between atoms: _77  and  _78
REMARK   35  A    between atoms: _83  and  _85
REMARK   36  A    between atoms: _85  and  _86
REMARK   37  A    between atoms: _85  and  _88
REMARK   38  A    between atoms: _88  and  _89
REMARK   39  A    between atoms: _92  and  _94
REMARK   40  A    between atoms: _94  and  _95
REMARK   41  A    between atoms: _94  and  _97
REMARK   42  A    between atoms: _97  and  _98
REMARK   43  A    between atoms: _103  and  _104
REMARK   44  A    between atoms: _106  and  _108
REMARK   45  A    between atoms: _108  and  _109
REMARK   46  A    between atoms: _108  and  _111
REMARK   47  A    between atoms: _111  and  _112
REMARK   48  A    between atoms: _117  and  _119
REMARK   49  A    between atoms: _119  and  _120
REMARK   50  A    between atoms: _119  and  _122
REMARK   51  A    between atoms: _122  and  _123
REMARK   52  A    between atoms: _126  and  _128
REMARK   53  A    between atoms: _128  and  _129
REMARK   54  A    between atoms: _128  and  _131
REMARK   55  A    between atoms: _131  and  _132
REMARK   56  A    between atoms: _135  and  _137
REMARK   57  A    between atoms: _137  and  _138
REMARK   58  A    between atoms: _137  and  _140
REMARK   59  A    between atoms: _140  and  _141
REMARK   60  A    between atoms: _144  and  _146
REMARK   61  A    between atoms: _146  and  _147
REMARK   62  A    between atoms: _146  and  _149
REMARK   63  A    between atoms: _149  and  _150
REMARK   64  A    between atoms: _153  and  _155
REMARK   65  A    between atoms: _155  and  _156
REMARK   66  A    between atoms: _155  and  _158
REMARK   67  A    between atoms: _158  and  _159
REMARK   68  A    between atoms: _161  and  _163
REMARK   69  A    between atoms: _163  and  _164
REMARK   70  A    between atoms: _166  and  _168
REMARK   71  A    between atoms: _168  and  _169
REMARK   72  A    between atoms: _171  and  _173
REMARK   73  A    between atoms: _173  and  _174
REMARK   74  A    between atoms: _173  and  _176
REMARK   75  A    between atoms: _176  and  _177
REMARK   76  A    between atoms: _182  and  _183
REMARK   77  A    between atoms: _185  and  _187
REMARK   78  A    between atoms: _187  and  _188
REMARK   79  A    between atoms: _187  and  _190
REMARK   80  A    between atoms: _190  and  _191
REMARK   81  A    between atoms: _191  and  _192
REMARK   82  A    between atoms: _197  and  _199
REMARK   83  A    between atoms: _199  and  _200
REMARK   84  A    between atoms: _203  and  _205
REMARK   85  A    between atoms: _205  and  _206
REMARK   86  A    between atoms: _205  and  _208
REMARK   87  A    between atoms: _208  and  _209
REMARK   88  A    between atoms: _209  and  _210
REMARK   89  A    between atoms: _212  and  _214
REMARK   90  A    between atoms: _214  and  _215
REMARK   91  A    between atoms: _218  and  _220
REMARK   92  A    between atoms: _220  and  _221
REMARK   93  A    between atoms: _220  and  _223
REMARK   94  A    between atoms: _223  and  _224
REMARK   95  A    between atoms: _230  and  _232
REMARK   96  A    between atoms: _232  and  _233
REMARK   97  A    between atoms: _232  and  _235
REMARK   98  A    between atoms: _235  and  _236
REMARK   99  A    between atoms: _239  and  _241
REMARK  100  A    between atoms: _241  and  _242
REMARK  101  A    between atoms: _241  and  _244
REMARK  102  A    between atoms: _244  and  _245
REMARK  103  A    between atoms: _245  and  _246
REMARK  104  A    between atoms: _249  and  _251
REMARK  105  A    between atoms: _251  and  _252
REMARK  106  A    between atoms: _251  and  _254
REMARK  107  A    between atoms: _256  and  _258
REMARK  108  A    between atoms: _258  and  _259
REMARK  109  A    between atoms: _258  and  _261
REMARK  110  A    between atoms: _261  and  _262
REMARK  111  A    between atoms: _265  and  _267
REMARK  112  A    between atoms: _267  and  _268
REMARK  113  A    between atoms: _267  and  _270
REMARK  114  A    between atoms: _270  and  _271
REMARK  115  A    between atoms: _273  and  _275
REMARK  116  A    between atoms: _275  and  _276
REMARK  117  A    between atoms: _275  and  _278
REMARK  118  A    between atoms: _278  and  _279
REMARK  119  A    between atoms: _282  and  _284
REMARK  120  A    between atoms: _284  and  _285
REMARK  121  A    between atoms: _284  and  _287
REMARK  122  A    between atoms: _287  and  _288
REMARK  123  A    between atoms: _288  and  _289
REMARK  124  A    between atoms: _294  and  _296
REMARK  125  A    between atoms: _296  and  _297
REMARK  126  A    between atoms: _296  and  _299
REMARK  127  A    between atoms: _299  and  _300
REMARK  128  A    between atoms: _300  and  _301
REMARK  129  A    between atoms: _306  and  _308
REMARK  130  A    between atoms: _308  and  _309
REMARK  131  A    between atoms: _311  and  _313
REMARK  132  A    between atoms: _313  and  _314
REMARK  133  A    between atoms: _313  and  _316
REMARK  134  A    between atoms: _316  and  _317
REMARK  135  A    between atoms: _319  and  _321
REMARK  136  A    between atoms: _321  and  _322
REMARK  137  A    between atoms: _321  and  _324
REMARK  138  A    between atoms: _324  and  _325
REMARK  139  A    between atoms: _325  and  _326
REMARK  140  A    between atoms: _326  and  _327
REMARK  141  A    between atoms: _336  and  _338
REMARK  142  A    between atoms: _338  and  _339
REMARK  143  A    between atoms: _342  and  _344
REMARK  144  A    between atoms: _344  and  _345
REMARK  145  A    between atoms: _344  and  _347
REMARK  146  A    between atoms: _350  and  _352
REMARK  147  A    between atoms: _352  and  _353
REMARK  148  A    between atoms: _355  and  _357
REMARK  149  A    between atoms: _357  and  _358
REMARK  150  A    between atoms: _360  and  _362
REMARK  151  A    between atoms: _362  and  _363
REMARK  152  A    between atoms: _362  and  _365
REMARK  153  A    between atoms: _365  and  _366
REMARK  154  A    between atoms: _369  and  _371
REMARK  155  A    between atoms: _371  and  _372
REMARK  156  A    between atoms: _375  and  _377
REMARK  157  A    between atoms: _377  and  _378
REMARK  158  A    between atoms: _377  and  _380
REMARK  159  A    between atoms: _383  and  _385
REMARK  160  A    between atoms: _385  and  _386
REMARK  161  A    between atoms: _388  and  _390
REMARK  162  A    between atoms: _390  and  _391
REMARK  163  A    between atoms: _390  and  _393
REMARK  164  A    between atoms: _393  and  _394
REMARK  165  A    between atoms: _394  and  _395
REMARK  166  A    between atoms: _398  and  _400
REMARK  167  A    between atoms: _400  and  _401
REMARK  168  A    between atoms: _400  and  _403
REMARK  169  A    between atoms: _403  and  _404
REMARK  170  A    between atoms: _404  and  _405
REMARK  171  A    between atoms: _407  and  _409
REMARK  172  A    between atoms: _409  and  _410
REMARK  173  A    between atoms: _409  and  _412
REMARK  174  A    between atoms: _412  and  _413
REMARK  175  A    between atoms: _418  and  _419
REMARK  176  A    between atoms: _421  and  _423
REMARK  177  A    between atoms: _423  and  _424
REMARK  178  A    between atoms: _423  and  _426
REMARK  179  A    between atoms: _426  and  _427
REMARK  180  A    between atoms: _430  and  _432
REMARK  181  A    between atoms: _432  and  _433
REMARK  182  A    between atoms: _432  and  _435
REMARK  183  A    between atoms: _435  and  _436
REMARK  184  A    between atoms: _436  and  _437
REMARK  185  A    between atoms: _439  and  _441
REMARK  186  A    between atoms: _441  and  _442
REMARK  187  A    between atoms: _444  and  _446
REMARK  188  A    between atoms: _446  and  _447
REMARK  189  A    between atoms: _446  and  _449
REMARK  190  A    between atoms: _452  and  _454
REMARK  191  A    between atoms: _454  and  _455
REMARK  192  A    between atoms: _457  and  _459
REMARK  193  A    between atoms: _459  and  _460
REMARK  194  A    between atoms: _459  and  _462
REMARK  195  A    between atoms: _462  and  _463
REMARK  196  A    between atoms: _469  and  _471
REMARK  197  A    between atoms: _471  and  _472
REMARK  198  A    between atoms: _471  and  _474
REMARK  199  A    between atoms: _474  and  _475
REMARK  200  A    between atoms: _478  and  _480
REMARK  201  A    between atoms: _480  and  _481
REMARK  202  A    between atoms: _480  and  _483
REMARK  203  A    between atoms: _485  and  _487
REMARK  204  A    between atoms: _487  and  _488
REMARK  205  A    between atoms: _487  and  _490
REMARK  206  A    between atoms: _493  and  _495
REMARK  207  A    between atoms: _495  and  _496
REMARK  208  A    between atoms: _495  and  _498
REMARK  209  A    between atoms: _498  and  _499
REMARK  210  A    between atoms: _502  and  _504
REMARK  211  A    between atoms: _504  and  _505
REMARK  212  A    between atoms: _504  and  _507
REMARK  213  A    between atoms: _507  and  _508
REMARK  214  A    between atoms: _508  and  _509
REMARK  215  A    between atoms: _509  and  _510
REMARK                            x       y       z     vdW  Elec       q    Type
REMARK                         _______ _______ _______ _____ _____    ______ ____
ROOT
ATOM      1  CG  LYS A   1       4.837  14.057   7.750  0.00  0.00    -0.000 C 
ENDROOT
BRANCH   1   2
ATOM      2  CB  LYS A   1       5.006  13.144   6.543  0.00  0.00    +0.025 C 
BRANCH   2   3
ATOM      3  CA  LYS A   1       4.307  11.813   6.705  0.00  0.00    +0.133 C 
BRANCH   3   4
ATOM      4  N   LYS A   1       4.984  11.014   7.746  0.00  0.00    -0.239 NA
ATOM      5  H   LYS A   1       5.805  11.427   8.233  0.00  0.00    +0.142 HD
ENDBRANCH   3   4
BRANCH   3   6
ATOM      6  C   LYS A   1       4.300  11.025   5.409  0.00  0.00    +0.224 C 
ATOM      7  O   LYS A   1       5.311  10.488   4.963  0.00  0.00    -0.287 OA
ENDBRANCH   3   6
ENDBRANCH   2   3
ENDBRANCH   1   2
BRANCH   1   8
ATOM      8  CD  LYS A   1       3.762  13.563   8.702  0.00  0.00    -0.024 C 
BRANCH   8   9
ATOM      9  CE  LYS A   1       3.800  14.365   9.970  0.00  0.00    -0.086 C 
BRANCH   9  10
ATOM     10  NZ  LYS A   1       3.781  15.839   9.665  0.00  0.00    +0.380 N 
ATOM     11  HZ1 LYS A   1       3.808  16.376  10.555  0.00  0.00    -0.089 HD
ATOM     12  HZ2 LYS A   1       2.912  16.073   9.144  0.00  0.00    -0.089 HD
ATOM     13  HZ3 LYS A   1       4.610  16.083   9.086  0.00  0.00    -0.089 HD
ENDBRANCH   9  10
ENDBRANCH   8   9
ENDBRANCH   1   8
TORSDOF 7
REMARK  Name = ../refined-set-2016/3ge7/3ge7_pocket.pdb
REMARK  215 active torsions:
REMARK  status: ('A' for Active; 'I' for Inactive)
REMARK    1  A    between atoms: _1  and  _3
REMARK    2  A    between atoms: _3  and  _4
REMARK    3  A    between atoms: _3  and  _6
REMARK    4  A    between atoms: _6  and  _7
REMARK    5  A    between atoms: _7  and  _8
REMARK    6  A    between atoms: _11  and  _12
REMARK    7  A    between atoms: _17  and  _19
REMARK    8  A    between atoms: _19  and  _20
REMARK    9  A    between atoms: _19  and  _22
REMARK   10  A    between atoms: _25  and  _27
REMARK   11  A    between atoms: _27  and  _28
REMARK   12  A    between atoms: _30  and  _32
REMARK   13  A    between atoms: _32  and  _33
REMARK   14  A    between atoms: _32  and  _35
REMARK   15  A    between atoms: _35  and  _36
REMARK   16  A    between atoms: _39  and  _41
REMARK   17  A    between atoms: _41  and  _42
REMARK   18  A    between atoms: _45  and  _47
REMARK   19  A    between atoms: _47  and  _48
REMARK   20  A    between atoms: _47  and  _50
REMARK   21  A    between atoms: _50  and  _51
REMARK   22  A    between atoms: _51  and  _52
REMARK   23  A    between atoms: _52  and  _53
REMARK   24  A    between atoms: _53  and  _54
REMARK   25  A    between atoms: _58  and  _60
REMARK   26  A    between atoms: _60  and  _61
REMARK   27  A    between atoms: _60  and  _63
REMARK   28  A    between atoms: _63  and  _64
REMARK   29  A    between atoms: _67  and  _69
REMARK   30  A    between atoms: _69  and  _70
REMARK   31  A    between atoms: _72  and  _74
REMARK   32  A    between atoms: _74  and  _75
REMARK   33  A    between atoms: _74  and  _77
REMARK   34  A    between atoms: _77  and  _78
REMARK   35  A    between atoms: _83  and  _85
REMARK   36  A    between atoms: _85  and  _86
REMARK   37  A    between atoms: _85  and  _88
REMARK   38  A    between atoms: _88  and  _89
REMARK   39  A    between atoms: _92  and  _94
REMARK   40  A    between atoms: _94  and  _95
REMARK   41  A    between atoms: _94  and  _97
REMARK   42  A    between atoms: _97  and  _98
REMARK   43  A    between atoms: _103  and  _104
REMARK   44  A    between atoms: _106  and  _108
REMARK   45  A    between atoms: _108  and  _109
REMARK   46  A    between atoms: _108  and  _111
REMARK   47  A    between atoms: _111  and  _112
REMARK   48  A    between atoms: _117  and  _119
REMARK   49  A    between atoms: _119  and  _120
REMARK   50  A    between atoms: _119  and  _122
REMARK   51  A    between atoms: _122  and  _123
REMARK   52  A    between atoms: _126  and  _128
REMARK   53  A    between atoms: _128  and  _129
REMARK   54  A    between atoms: _128  and  _131
REMARK   55  A    between atoms: _131  and  _132
REMARK   56  A    between atoms: _135  and  _137
REMARK   57  A    between atoms: _137  and  _138
REMARK   58  A    between atoms: _137  and  _140
REMARK   59  A    between atoms: _140  and  _141
REMARK   60  A    between atoms: _144  and  _146
REMARK   61  A    between atoms: _146  and  _147
REMARK   62  A    between atoms: _146  and  _149
REMARK   63  A    between atoms: _149  and  _150
REMARK   64  A    between atoms: _153  and  _155
REMARK   65  A    between atoms: _155  and  _156
REMARK   66  A    between atoms: _155  and  _158
REMARK   67  A    between atoms: _158  and  _159
REMARK   68  A    between atoms: _161  and  _163
REMARK   69  A    between atoms: _163  and  _164
REMARK   70  A    between atoms: _166  and  _168
REMARK   71  A    between atoms: _168  and  _169
REMARK   72  A    between atoms: _171  and  _173
REMARK   73  A    between atoms: _173  and  _174
REMARK   74  A    between atoms: _173  and  _176
REMARK   75  A    between atoms: _176  and  _177
REMARK   76  A    between atoms: _182  and  _183
REMARK   77  A    between atoms: _185  and  _187
REMARK   78  A    between atoms: _187  and  _188
REMARK   79  A    between atoms: _187  and  _190
REMARK   80  A    between atoms: _190  and  _191
REMARK   81  A    between atoms: _191  and  _192
REMARK   82  A    between atoms: _197  and  _199
REMARK   83  A    between atoms: _199  and  _200
REMARK   84  A    between atoms: _203  and  _205
REMARK   85  A    between atoms: _205  and  _206
REMARK   86  A    between atoms: _205  and  _208
REMARK   87  A    between atoms: _208  and  _209
REMARK   88  A    between atoms: _209  and  _210
REMARK   89  A    between atoms: _212  and  _214
REMARK   90  A    between atoms: _214  and  _215
REMARK   91  A    between atoms: _218  and  _220
REMARK   92  A    between atoms: _220  and  _221
REMARK   93  A    between atoms: _220  and  _223
REMARK   94  A    between atoms: _223  and  _224
REMARK   95  A    between atoms: _230  and  _232
REMARK   96  A    between atoms: _232  and  _233
REMARK   97  A    between atoms: _232  and  _235
REMARK   98  A    between atoms: _235  and  _236
REMARK   99  A    between atoms: _239  and  _241
REMARK  100  A    between atoms: _241  and  _242
REMARK  101  A    between atoms: _241  and  _244
REMARK  102  A    between atoms: _244  and  _245
REMARK  103  A    between atoms: _245  and  _246
REMARK  104  A    between atoms: _249  and  _251
REMARK  105  A    between atoms: _251  and  _252
REMARK  106  A    between atoms: _251  and  _254
REMARK  107  A    between atoms: _256  and  _258
REMARK  108  A    between atoms: _258  and  _259
REMARK  109  A    between atoms: _258  and  _261
REMARK  110  A    between atoms: _261  and  _262
REMARK  111  A    between atoms: _265  and  _267
REMARK  112  A    between atoms: _267  and  _268
REMARK  113  A    between atoms: _267  and  _270
REMARK  114  A    between atoms: _270  and  _271
REMARK  115  A    between atoms: _273  and  _275
REMARK  116  A    between atoms: _275  and  _276
REMARK  117  A    between atoms: _275  and  _278
REMARK  118  A    between atoms: _278  and  _279
REMARK  119  A    between atoms: _282  and  _284
REMARK  120  A    between atoms: _284  and  _285
REMARK  121  A    between atoms: _284  and  _287
REMARK  122  A    between atoms: _287  and  _288
REMARK  123  A    between atoms: _288  and  _289
REMARK  124  A    between atoms: _294  and  _296
REMARK  125  A    between atoms: _296  and  _297
REMARK  126  A    between atoms: _296  and  _299
REMARK  127  A    between atoms: _299  and  _300
REMARK  128  A    between atoms: _300  and  _301
REMARK  129  A    between atoms: _306  and  _308
REMARK  130  A    between atoms: _308  and  _309
REMARK  131  A    between atoms: _311  and  _313
REMARK  132  A    between atoms: _313  and  _314
REMARK  133  A    between atoms: _313  and  _316
REMARK  134  A    between atoms: _316  and  _317
REMARK  135  A    between atoms: _319  and  _321
REMARK  136  A    between atoms: _321  and  _322
REMARK  137  A    between atoms: _321  and  _324
REMARK  138  A    between atoms: _324  and  _325
REMARK  139  A    between atoms: _325  and  _326
REMARK  140  A    between atoms: _326  and  _327
REMARK  141  A    between atoms: _336  and  _338
REMARK  142  A    between atoms: _338  and  _339
REMARK  143  A    between atoms: _342  and  _344
REMARK  144  A    between atoms: _344  and  _345
REMARK  145  A    between atoms: _344  and  _347
REMARK  146  A    between atoms: _350  and  _352
REMARK  147  A    between atoms: _352  and  _353
REMARK  148  A    between atoms: _355  and  _357
REMARK  149  A    between atoms: _357  and  _358
REMARK  150  A    between atoms: _360  and  _362
REMARK  151  A    between atoms: _362  and  _363
REMARK  152  A    between atoms: _362  and  _365
REMARK  153  A    between atoms: _365  and  _366
REMARK  154  A    between atoms: _369  and  _371
REMARK  155  A    between atoms: _371  and  _372
REMARK  156  A    between atoms: _375  and  _377
REMARK  157  A    between atoms: _377  and  _378
REMARK  158  A    between atoms: _377  and  _380
REMARK  159  A    between atoms: _383  and  _385
REMARK  160  A    between atoms: _385  and  _386
REMARK  161  A    between atoms: _388  and  _390
REMARK  162  A    between atoms: _390  and  _391
REMARK  163  A    between atoms: _390  and  _393
REMARK  164  A    between atoms: _393  and  _394
REMARK  165  A    between atoms: _394  and  _395
REMARK  166  A    between atoms: _398  and  _400
REMARK  167  A    between atoms: _400  and  _401
REMARK  168  A    between atoms: _400  and  _403
REMARK  169  A    between atoms: _403  and  _404
REMARK  170  A    between atoms: _404  and  _405
REMARK  171  A    between atoms: _407  and  _409
REMARK  172  A    between atoms: _409  and  _410
REMARK  173  A    between atoms: _409  and  _412
REMARK  174  A    between atoms: _412  and  _413
REMARK  175  A    between atoms: _418  and  _419
REMARK  176  A    between atoms: _421  and  _423
REMARK  177  A    between atoms: _423  and  _424
REMARK  178  A    between atoms: _423  and  _426
REMARK  179  A    between atoms: _426  and  _427
REMARK  180  A    between atoms: _430  and  _432
REMARK  181  A    between atoms: _432  and  _433
REMARK  182  A    between atoms: _432  and  _435
REMARK  183  A    between atoms: _435  and  _436
REMARK  184  A    between atoms: _436  and  _437
REMARK  185  A    between atoms: _439  and  _441
REMARK  186  A    between atoms: _441  and  _442
REMARK  187  A    between atoms: _444  and  _446
REMARK  188  A    between atoms: _446  and  _447
REMARK  189  A    between atoms: _446  and  _449
REMARK  190  A    between atoms: _452  and  _454
REMARK  191  A    between atoms: _454  and  _455
REMARK  192  A    between atoms: _457  and  _459
REMARK  193  A    between atoms: _459  and  _460
REMARK  194  A    between atoms: _459  and  _462
REMARK  195  A    between atoms: _462  and  _463
REMARK  196  A    between atoms: _469  and  _471
REMARK  197  A    between atoms: _471  and  _472
REMARK  198  A    between atoms: _471  and  _474
REMARK  199  A    between atoms: _474  and  _475
REMARK  200  A    between atoms: _478  and  _480
REMARK  201  A    between atoms: _480  and  _481
REMARK  202  A    between atoms: _480  and  _483
REMARK  203  A    between atoms: _485  and  _487
REMARK  204  A    between atoms: _487  and  _488
REMARK  205  A    between atoms: _487  and  _490
REMARK  206  A    between atoms: _493  and  _495
REMARK  207  A    between atoms: _495  and  _496
REMARK  208  A    between atoms: _495  and  _498
REMARK  209  A    between atoms: _498  and  _499
REMARK  210  A    between atoms: _502  and  _504
REMARK  211  A    between atoms: _504  and  _505
REMARK  212  A    between atoms: _504  and  _507
REMARK  213  A    between atoms: _507  and  _508
REMARK  214  A    between atoms: _508  and  _509
REMARK  215  A    between atoms: _509  and  _510
REMARK                            x       y       z     vdW  Elec       q    Type
REMARK                         _______ _______ _______ _____ _____    ______ ____
ROOT
ATOM      1  C   THR A   4       4.362  16.313  21.672  0.00  0.00    +0.243 C 
ATOM      2  O   THR A   4       3.218  16.603  21.962  0.00  0.00    -0.273 OA
ATOM      3  N   TYR A   5       5.232  17.199  21.238  0.00  0.00    -0.297 N 
ATOM      4  H   TYR A   5       6.178  16.894  20.931  0.00  0.00    +0.150 HD
ENDROOT
BRANCH   3   5
ATOM      5  CA  TYR A   5       4.861  18.630  21.188  0.00  0.00    +0.153 C 
BRANCH   5   6
ATOM      6  C   TYR A   5       3.623  18.866  20.377  0.00  0.00    +0.241 C 
ATOM      7  O   TYR A   5       2.660  19.534  20.846  0.00  0.00    -0.273 OA
ATOM      8  N   HIS A   6       3.633  18.343  19.158  0.00  0.00    -0.297 N 
ATOM      9  H   HIS A   6       4.468  17.826  18.817  0.00  0.00    +0.150 HD
BRANCH   8  10
ATOM     10  CA  HIS A   6       2.479  18.496  18.311  0.00  0.00    +0.155 C 
BRANCH  10  11
ATOM     11  C   HIS A   6       1.259  17.836  18.938  0.00  0.00    +0.241 C 
ATOM     12  N   LEU A   7       1.420  16.600  19.413  0.00  0.00    -0.298 N 
ATOM     13  H   LEU A   7       2.362  16.163  19.469  0.00  0.00    +0.150 HD
ATOM     14  O   HIS A   6       0.182  18.427  18.960  0.00  0.00    -0.273 OA
BRANCH  12  15
ATOM     15  CA  LEU A   7       0.223  15.881  19.852  0.00  0.00    +0.137 C 
BRANCH  15  16
ATOM     16  C   LEU A   7      -0.411  16.479  21.088  0.00  0.00    +0.227 C 
ATOM     17  O   LEU A   7      -1.613  16.385  21.341  0.00  0.00    -0.286 OA
ENDBRANCH  15  16
BRANCH  15  18
ATOM     18  CB  LEU A   7       0.557  14.386  20.063  0.00  0.00    +0.028 C 
BRANCH  18  19
ATOM     19  CG  LEU A   7       0.785  13.606  18.756  0.00  0.00    +0.002 C 
ATOM     20  CD2 LEU A   7       1.238  12.189  19.031  0.00  0.00    +0.000 C 
ATOM     21  CD1 LEU A   7      -0.457  13.564  17.865  0.00  0.00    +0.000 C 
ENDBRANCH  18  19
ENDBRANCH  15  18
ENDBRANCH  12  15
ENDBRANCH  10  11
BRANCH  10  22
ATOM     22  CB  HIS A   6       2.746  17.930  16.912  0.00  0.00    +0.076 C 
BRANCH  22  23
ATOM     23  CG  HIS A   6       3.774  18.715  16.157  0.00  0.00    +0.082 A 
ATOM     24  ND1 HIS A   6       5.106  18.737  16.494  0.00  0.00    -0.227 NA
ATOM     25  CE1 HIS A   6       5.779  19.510  15.663  0.00  0.00    +0.199 A 
ATOM     26  NE2 HIS A   6       4.921  20.002  14.783  0.00  0.00    -0.221 NA
ATOM     27  CD2 HIS A   6       3.667  19.522  15.077  0.00  0.00    +0.115 A 
ENDBRANCH  22  23
ENDBRANCH  10  22
ENDBRANCH   8  10
ENDBRANCH   5   6
BRANCH   5  28
ATOM     28  CB  TYR A   5       6.089  19.403  20.685  0.00  0.00    +0.055 C 
BRANCH  28  29
ATOM     29  CG  TYR A   5       5.804  20.887  20.457  0.00  0.00    -0.020 A 
ATOM     30  CD2 TYR A   5       5.908  21.785  21.498  0.00  0.00    -0.001 A 
ATOM     31  CE2 TYR A   5       5.645  23.129  21.233  0.00  0.00    +0.036 A 
ATOM     32  CZ  TYR A   5       5.296  23.516  19.962  0.00  0.00    +0.134 A 
ATOM     33  CE1 TYR A   5       5.195  22.634  18.914  0.00  0.00    +0.036 A 
ATOM     34  CD1 TYR A   5       5.462  21.314  19.185  0.00  0.00    -0.001 A 
BRANCH  32  35
ATOM     35  OH  TYR A   5       5.021  24.836  19.652  0.00  0.00    -0.506 OA
ATOM     36  HH  TYR A   5       4.094  24.908  19.312  0.00  0.00    +0.292 HD
ENDBRANCH  32  35
ENDBRANCH  28  29
ENDBRANCH   5  28
ENDBRANCH   3   5
BRANCH   1  37
ATOM     37  CA  THR A   4       4.930  14.901  21.763  0.00  0.00    +0.176 C 
BRANCH  37  39
ATOM     38  C   ASN A   3       5.137  14.503  19.365  0.00  0.00    +0.241 C 
ATOM     39  N   THR A   4       5.668  14.494  20.569  0.00  0.00    -0.295 N 
ATOM     40  H   THR A   4       6.655  14.184  20.675  0.00  0.00    +0.150 HD
ATOM     41  O   ASN A   3       4.037  15.039  19.207  0.00  0.00    -0.273 OA
BRANCH  38  42
ATOM     42  CA  ASN A   3       5.948  13.877  18.251  0.00  0.00    +0.158 C 
BRANCH  42  45
ATOM     43  C   GLY A   2       6.502  11.473  18.554  0.00  0.00    +0.243 C 
ATOM     44  O   GLY A   2       7.407  11.601  19.383  0.00  0.00    -0.273 OA
ATOM     45  N   ASN A   3       5.791  12.457  18.076  0.00  0.00    -0.297 N 
ATOM     46  H   ASN A   3       4.989  12.172  17.478  0.00  0.00    +0.150 HD
BRANCH  43  47
ATOM     47  CA  GLY A   2       6.056  10.093  18.111  0.00  0.00    +0.176 C 
BRANCH  47  49
ATOM     48  C   LEU A   1       7.874   9.010  16.960  0.00  0.00    +0.238 C 
ATOM     49  N   GLY A   2       7.255   9.279  18.073  0.00  0.00    -0.296 N 
ATOM     50  H   GLY A   2       7.633   8.898  18.964  0.00  0.00    +0.150 HD
ATOM     51  O   LEU A   1       7.531   9.396  15.846  0.00  0.00    -0.274 OA
BRANCH  48  52
ATOM     52  CA  LEU A   1       9.206   8.291  17.049  0.00  0.00    +0.145 C 
BRANCH  52  53
ATOM     53  N   LEU A   1       9.311   7.257  16.049  0.00  0.00    -0.238 NA
ATOM     54  H   LEU A   1       9.611   7.505  15.085  0.00  0.00    +0.142 HD
ENDBRANCH  52  53
BRANCH  52  55
ATOM     55  CB  LEU A   1      10.227   9.410  16.849  0.00  0.00    +0.026 C 
BRANCH  55  56
ATOM     56  CG  LEU A   1      11.359   9.324  17.854  0.00  0.00    +0.002 C 
ATOM     57  CD2 LEU A   1      12.057  10.624  18.102  0.00  0.00    +0.000 C 
ATOM     58  CD1 LEU A   1      12.324   8.322  17.245  0.00  0.00    +0.000 C 
ENDBRANCH  55  56
ENDBRANCH  52  55
ENDBRANCH  48  52
ENDBRANCH  47  49
ENDBRANCH  43  47
ENDBRANCH  42  45
BRANCH  42  59
ATOM     59  CB  ASN A   3       5.479  14.449  16.910  0.00  0.00    +0.114 C 
BRANCH  59  60
ATOM     60  CG  ASN A   3       6.101  15.803  16.643  0.00  0.00    +0.222 C 
ATOM     61  OD1 ASN A   3       6.039  16.667  17.516  0.00  0.00    -0.275 OA
ATOM     62  ND2 ASN A   3       6.689  15.909  15.464  0.00  0.00    -0.329 N 
ATOM     63 HD21 ASN A   3       7.164  16.795  15.197  0.00  0.00    +0.145 HD
ATOM     64 HD22 ASN A   3       6.677  15.106  14.803  0.00  0.00    +0.145 HD
ENDBRANCH  59  60
ENDBRANCH  42  59
ENDBRANCH  38  42
ENDBRANCH  37  39
BRANCH  37  65
ATOM     65  CB  THR A   4       5.884  14.770  22.959  0.00  0.00    +0.137 C 
ATOM     66  CG2 THR A   4       5.292  15.293  24.248  0.00  0.00    +0.034 C 
BRANCH  65  67
ATOM     67  OG1 THR A   4       6.084  13.356  23.192  0.00  0.00    -0.382 OA
ATOM     68  HG1 THR A   4       6.697  13.233  23.960  0.00  0.00    +0.210 HD
ENDBRANCH  65  67
ENDBRANCH  37  65
ENDBRANCH   1  37
TORSDOF 27
REMARK  Name = ../refined-set-2016/3ge7/3ge7_pocket.pdb
REMARK  215 active torsions:
REMARK  status: ('A' for Active; 'I' for Inactive)
REMARK    1  A    between atoms: _1  and  _3
REMARK    2  A    between atoms: _3  and  _4
REMARK    3  A    between atoms: _3  and  _6
REMARK    4  A    between atoms: _6  and  _7
REMARK    5  A    between atoms: _7  and  _8
REMARK    6  A    between atoms: _11  and  _12
REMARK    7  A    between atoms: _17  and  _19
REMARK    8  A    between atoms: _19  and  _20
REMARK    9  A    between atoms: _19  and  _22
REMARK   10  A    between atoms: _25  and  _27
REMARK   11  A    between atoms: _27  and  _28
REMARK   12  A    between atoms: _30  and  _32
REMARK   13  A    between atoms: _32  and  _33
REMARK   14  A    between atoms: _32  and  _35
REMARK   15  A    between atoms: _35  and  _36
REMARK   16  A    between atoms: _39  and  _41
REMARK   17  A    between atoms: _41  and  _42
REMARK   18  A    between atoms: _45  and  _47
REMARK   19  A    between atoms: _47  and  _48
REMARK   20  A    between atoms: _47  and  _50
REMARK   21  A    between atoms: _50  and  _51
REMARK   22  A    between atoms: _51  and  _52
REMARK   23  A    between atoms: _52  and  _53
REMARK   24  A    between atoms: _53  and  _54
REMARK   25  A    between atoms: _58  and  _60
REMARK   26  A    between atoms: _60  and  _61
REMARK   27  A    between atoms: _60  and  _63
REMARK   28  A    between atoms: _63  and  _64
REMARK   29  A    between atoms: _67  and  _69
REMARK   30  A    between atoms: _69  and  _70
REMARK   31  A    between atoms: _72  and  _74
REMARK   32  A    between atoms: _74  and  _75
REMARK   33  A    between atoms: _74  and  _77
REMARK   34  A    between atoms: _77  and  _78
REMARK   35  A    between atoms: _83  and  _85
REMARK   36  A    between atoms: _85  and  _86
REMARK   37  A    between atoms: _85  and  _88
REMARK   38  A    between atoms: _88  and  _89
REMARK   39  A    between atoms: _92  and  _94
REMARK   40  A    between atoms: _94  and  _95
REMARK   41  A    between atoms: _94  and  _97
REMARK   42  A    between atoms: _97  and  _98
REMARK   43  A    between atoms: _103  and  _104
REMARK   44  A    between atoms: _106  and  _108
REMARK   45  A    between atoms: _108  and  _109
REMARK   46  A    between atoms: _108  and  _111
REMARK   47  A    between atoms: _111  and  _112
REMARK   48  A    between atoms: _117  and  _119
REMARK   49  A    between atoms: _119  and  _120
REMARK   50  A    between atoms: _119  and  _122
REMARK   51  A    between atoms: _122  and  _123
REMARK   52  A    between atoms: _126  and  _128
REMARK   53  A    between atoms: _128  and  _129
REMARK   54  A    between atoms: _128  and  _131
REMARK   55  A    between atoms: _131  and  _132
REMARK   56  A    between atoms: _135  and  _137
REMARK   57  A    between atoms: _137  and  _138
REMARK   58  A    between atoms: _137  and  _140
REMARK   59  A    between atoms: _140  and  _141
REMARK   60  A    between atoms: _144  and  _146
REMARK   61  A    between atoms: _146  and  _147
REMARK   62  A    between atoms: _146  and  _149
REMARK   63  A    between atoms: _149  and  _150
REMARK   64  A    between atoms: _153  and  _155
REMARK   65  A    between atoms: _155  and  _156
REMARK   66  A    between atoms: _155  and  _158
REMARK   67  A    between atoms: _158  and  _159
REMARK   68  A    between atoms: _161  and  _163
REMARK   69  A    between atoms: _163  and  _164
REMARK   70  A    between atoms: _166  and  _168
REMARK   71  A    between atoms: _168  and  _169
REMARK   72  A    between atoms: _171  and  _173
REMARK   73  A    between atoms: _173  and  _174
REMARK   74  A    between atoms: _173  and  _176
REMARK   75  A    between atoms: _176  and  _177
REMARK   76  A    between atoms: _182  and  _183
REMARK   77  A    between atoms: _185  and  _187
REMARK   78  A    between atoms: _187  and  _188
REMARK   79  A    between atoms: _187  and  _190
REMARK   80  A    between atoms: _190  and  _191
REMARK   81  A    between atoms: _191  and  _192
REMARK   82  A    between atoms: _197  and  _199
REMARK   83  A    between atoms: _199  and  _200
REMARK   84  A    between atoms: _203  and  _205
REMARK   85  A    between atoms: _205  and  _206
REMARK   86  A    between atoms: _205  and  _208
REMARK   87  A    between atoms: _208  and  _209
REMARK   88  A    between atoms: _209  and  _210
REMARK   89  A    between atoms: _212  and  _214
REMARK   90  A    between atoms: _214  and  _215
REMARK   91  A    between atoms: _218  and  _220
REMARK   92  A    between atoms: _220  and  _221
REMARK   93  A    between atoms: _220  and  _223
REMARK   94  A    between atoms: _223  and  _224
REMARK   95  A    between atoms: _230  and  _232
REMARK   96  A    between atoms: _232  and  _233
REMARK   97  A    between atoms: _232  and  _235
REMARK   98  A    between atoms: _235  and  _236
REMARK   99  A    between atoms: _239  and  _241
REMARK  100  A    between atoms: _241  and  _242
REMARK  101  A    between atoms: _241  and  _244
REMARK  102  A    between atoms: _244  and  _245
REMARK  103  A    between atoms: _245  and  _246
REMARK  104  A    between atoms: _249  and  _251
REMARK  105  A    between atoms: _251  and  _252
REMARK  106  A    between atoms: _251  and  _254
REMARK  107  A    between atoms: _256  and  _258
REMARK  108  A    between atoms: _258  and  _259
REMARK  109  A    between atoms: _258  and  _261
REMARK  110  A    between atoms: _261  and  _262
REMARK  111  A    between atoms: _265  and  _267
REMARK  112  A    between atoms: _267  and  _268
REMARK  113  A    between atoms: _267  and  _270
REMARK  114  A    between atoms: _270  and  _271
REMARK  115  A    between atoms: _273  and  _275
REMARK  116  A    between atoms: _275  and  _276
REMARK  117  A    between atoms: _275  and  _278
REMARK  118  A    between atoms: _278  and  _279
REMARK  119  A    between atoms: _282  and  _284
REMARK  120  A    between atoms: _284  and  _285
REMARK  121  A    between atoms: _284  and  _287
REMARK  122  A    between atoms: _287  and  _288
REMARK  123  A    between atoms: _288  and  _289
REMARK  124  A    between atoms: _294  and  _296
REMARK  125  A    between atoms: _296  and  _297
REMARK  126  A    between atoms: _296  and  _299
REMARK  127  A    between atoms: _299  and  _300
REMARK  128  A    between atoms: _300  and  _301
REMARK  129  A    between atoms: _306  and  _308
REMARK  130  A    between atoms: _308  and  _309
REMARK  131  A    between atoms: _311  and  _313
REMARK  132  A    between atoms: _313  and  _314
REMARK  133  A    between atoms: _313  and  _316
REMARK  134  A    between atoms: _316  and  _317
REMARK  135  A    between atoms: _319  and  _321
REMARK  136  A    between atoms: _321  and  _322
REMARK  137  A    between atoms: _321  and  _324
REMARK  138  A    between atoms: _324  and  _325
REMARK  139  A    between atoms: _325  and  _326
REMARK  140  A    between atoms: _326  and  _327
REMARK  141  A    between atoms: _336  and  _338
REMARK  142  A    between atoms: _338  and  _339
REMARK  143  A    between atoms: _342  and  _344
REMARK  144  A    between atoms: _344  and  _345
REMARK  145  A    between atoms: _344  and  _347
REMARK  146  A    between atoms: _350  and  _352
REMARK  147  A    between atoms: _352  and  _353
REMARK  148  A    between atoms: _355  and  _357
REMARK  149  A    between atoms: _357  and  _358
REMARK  150  A    between atoms: _360  and  _362
REMARK  151  A    between atoms: _362  and  _363
REMARK  152  A    between atoms: _362  and  _365
REMARK  153  A    between atoms: _365  and  _366
REMARK  154  A    between atoms: _369  and  _371
REMARK  155  A    between atoms: _371  and  _372
REMARK  156  A    between atoms: _375  and  _377
REMARK  157  A    between atoms: _377  and  _378
REMARK  158  A    between atoms: _377  and  _380
REMARK  159  A    between atoms: _383  and  _385
REMARK  160  A    between atoms: _385  and  _386
REMARK  161  A    between atoms: _388  and  _390
REMARK  162  A    between atoms: _390  and  _391
REMARK  163  A    between atoms: _390  and  _393
REMARK  164  A    between atoms: _393  and  _394
REMARK  165  A    between atoms: _394  and  _395
REMARK  166  A    between atoms: _398  and  _400
REMARK  167  A    between atoms: _400  and  _401
REMARK  168  A    between atoms: _400  and  _403
REMARK  169  A    between atoms: _403  and  _404
REMARK  170  A    between atoms: _404  and  _405
REMARK  171  A    between atoms: _407  and  _409
REMARK  172  A    between atoms: _409  and  _410
REMARK  173  A    between atoms: _409  and  _412
REMARK  174  A    between atoms: _412  and  _413
REMARK  175  A    between atoms: _418  and  _419
REMARK  176  A    between atoms: _421  and  _423
REMARK  177  A    between atoms: _423  and  _424
REMARK  178  A    between atoms: _423  and  _426
REMARK  179  A    between atoms: _426  and  _427
REMARK  180  A    between atoms: _430  and  _432
REMARK  181  A    between atoms: _432  and  _433
REMARK  182  A    between atoms: _432  and  _435
REMARK  183  A    between atoms: _435  and  _436
REMARK  184  A    between atoms: _436  and  _437
REMARK  185  A    between atoms: _439  and  _441
REMARK  186  A    between atoms: _441  and  _442
REMARK  187  A    between atoms: _444  and  _446
REMARK  188  A    between atoms: _446  and  _447
REMARK  189  A    between atoms: _446  and  _449
REMARK  190  A    between atoms: _452  and  _454
REMARK  191  A    between atoms: _454  and  _455
REMARK  192  A    between atoms: _457  and  _459
REMARK  193  A    between atoms: _459  and  _460
REMARK  194  A    between atoms: _459  and  _462
REMARK  195  A    between atoms: _462  and  _463
REMARK  196  A    between atoms: _469  and  _471
REMARK  197  A    between atoms: _471  and  _472
REMARK  198  A    between atoms: _471  and  _474
REMARK  199  A    between atoms: _474  and  _475
REMARK  200  A    between atoms: _478  and  _480
REMARK  201  A    between atoms: _480  and  _481
REMARK  202  A    between atoms: _480  and  _483
REMARK  203  A    between atoms: _485  and  _487
REMARK  204  A    between atoms: _487  and  _488
REMARK  205  A    between atoms: _487  and  _490
REMARK  206  A    between atoms: _493  and  _495
REMARK  207  A    between atoms: _495  and  _496
REMARK  208  A    between atoms: _495  and  _498
REMARK  209  A    between atoms: _498  and  _499
REMARK  210  A    between atoms: _502  and  _504
REMARK  211  A    between atoms: _504  and  _505
REMARK  212  A    between atoms: _504  and  _507
REMARK  213  A    between atoms: _507  and  _508
REMARK  214  A    between atoms: _508  and  _509
REMARK  215  A    between atoms: _509  and  _510
REMARK                            x       y       z     vdW  Elec       q    Type
REMARK                         _______ _______ _______ _____ _____    ______ ____
ROOT
ATOM      1  C   SER A   4       9.042  16.189  25.752  0.00  0.00    +0.243 C 
ATOM      2  O   SER A   4       8.313  16.635  26.629  0.00  0.00    -0.273 OA
ATOM      3  N   GLY A   5       9.201  16.753  24.569  0.00  0.00    -0.295 N 
ATOM      4  H   GLY A   5       9.889  16.325  23.917  0.00  0.00    +0.150 HD
ENDROOT
BRANCH   3   5
ATOM      5  CA  GLY A   5       8.487  17.922  24.119  0.00  0.00    +0.176 C 
BRANCH   5   6
ATOM      6  C   GLY A   5       9.198  19.227  24.325  0.00  0.00    +0.243 C 
ATOM      7  N   GLY A   6      10.304  19.230  25.068  0.00  0.00    -0.295 N 
ATOM      8  H   GLY A   6      10.699  18.345  25.445  0.00  0.00    +0.150 HD
ATOM      9  O   GLY A   5       8.796  20.285  23.809  0.00  0.00    -0.273 OA
BRANCH   7  10
ATOM     10  CA  GLY A   6      10.938  20.500  25.333  0.00  0.00    +0.176 C 
BRANCH  10  11
ATOM     11  C   GLY A   6      11.869  21.026  24.269  0.00  0.00    +0.243 C 
ATOM     12  O   GLY A   6      12.015  22.257  24.218  0.00  0.00    -0.273 OA
ATOM     13  N   TYR A   7      12.504  20.191  23.460  0.00  0.00    -0.297 N 
ATOM     14  H   TYR A   7      12.362  19.169  23.591  0.00  0.00    +0.150 HD
BRANCH  13  15
ATOM     15  CA  TYR A   7      13.398  20.642  22.389  0.00  0.00    +0.153 C 
BRANCH  15  16
ATOM     16  C   TYR A   7      12.604  21.459  21.382  0.00  0.00    +0.241 C 
ATOM     17  N   GLN A   8      11.390  20.989  21.092  0.00  0.00    -0.298 N 
ATOM     18  H   GLN A   8      11.053  20.130  21.571  0.00  0.00    +0.150 HD
ATOM     19  O   TYR A   7      13.141  22.469  20.925  0.00  0.00    -0.273 OA
BRANCH  17  20
ATOM     20  CA  GLN A   8      10.523  21.646  20.123  0.00  0.00    +0.137 C 
BRANCH  20  21
ATOM     21  C   GLN A   8       9.808  22.846  20.732  0.00  0.00    +0.227 C 
ATOM     22  O   GLN A   8       9.529  23.805  20.008  0.00  0.00    -0.286 OA
ENDBRANCH  20  21
BRANCH  20  23
ATOM     23  CB  GLN A   8       9.478  20.703  19.532  0.00  0.00    +0.037 C 
BRANCH  23  24
ATOM     24  CG  GLN A   8      10.077  19.609  18.661  0.00  0.00    +0.087 C 
BRANCH  24  25
ATOM     25  CD  GLN A   8       9.092  19.100  17.625  0.00  0.00    +0.219 C 
ATOM     26  NE2 GLN A   8       8.252  18.183  18.065  0.00  0.00    -0.329 N 
ATOM     27 HE21 GLN A   8       8.309  17.856  19.050  0.00  0.00    +0.145 HD
ATOM     28 HE22 GLN A   8       7.533  17.787  17.426  0.00  0.00    +0.145 HD
ATOM     29  OE1 GLN A   8       9.081  19.531  16.476  0.00  0.00    -0.275 OA
ENDBRANCH  24  25
ENDBRANCH  23  24
ENDBRANCH  20  23
ENDBRANCH  17  20
ENDBRANCH  15  16
BRANCH  15  30
ATOM     30  CB  TYR A   7      14.097  19.469  21.695  0.00  0.00    +0.055 C 
BRANCH  30  31
ATOM     31  CG  TYR A   7      14.909  19.754  20.451  0.00  0.00    -0.020 A 
ATOM     32  CD2 TYR A   7      16.271  20.022  20.549  0.00  0.00    -0.001 A 
ATOM     33  CE2 TYR A   7      17.039  20.285  19.430  0.00  0.00    +0.036 A 
ATOM     34  CZ  TYR A   7      16.474  20.291  18.174  0.00  0.00    +0.134 A 
ATOM     35  CE1 TYR A   7      15.128  20.027  18.044  0.00  0.00    +0.036 A 
ATOM     36  CD1 TYR A   7      14.365  19.759  19.172  0.00  0.00    -0.001 A 
BRANCH  34  37
ATOM     37  OH  TYR A   7      17.273  20.558  17.087  0.00  0.00    -0.506 OA
ATOM     38  HH  TYR A   7      18.201  20.720  17.393  0.00  0.00    +0.292 HD
ENDBRANCH  34  37
ENDBRANCH  30  31
ENDBRANCH  15  30
ENDBRANCH  13  15
ENDBRANCH  10  11
ENDBRANCH   7  10
ENDBRANCH   5   6
ENDBRANCH   3   5
BRANCH   1  39
ATOM     39  CA  SER A   4       9.776  14.880  26.016  0.00  0.00    +0.178 C 
BRANCH  39  41
ATOM     40  C   ASP A   3       9.680  13.524  23.995  0.00  0.00    +0.241 C 
ATOM     41  N   SER A   4      10.373  14.340  24.781  0.00  0.00    -0.295 N 
ATOM     42  H   SER A   4      11.346  14.601  24.523  0.00  0.00    +0.150 HD
ATOM     43  O   ASP A   3       8.461  13.305  24.171  0.00  0.00    -0.273 OA
BRANCH  40  44
ATOM     44  CA  ASP A   3      10.501  12.832  22.898  0.00  0.00    +0.160 C 
BRANCH  44  47
ATOM     45  C   THR A   2       9.380  10.697  22.945  0.00  0.00    +0.243 C 
ATOM     46  O   THR A   2      10.006  10.375  23.954  0.00  0.00    -0.273 OA
ATOM     47  N   ASP A   3       9.577  11.836  22.302  0.00  0.00    -0.296 N 
ATOM     48  H   ASP A   3       9.096  12.029  21.400  0.00  0.00    +0.150 HD
BRANCH  45  49
ATOM     49  CA  THR A   2       8.334   9.751  22.345  0.00  0.00    +0.176 C 
BRANCH  49  51
ATOM     50  C   LEU A   1       9.010   7.710  21.281  0.00  0.00    +0.238 C 
ATOM     51  N   THR A   2       8.795   8.368  22.417  0.00  0.00    -0.295 N 
ATOM     52  H   THR A   2       8.952   7.907  23.336  0.00  0.00    +0.150 HD
ATOM     53  O   LEU A   1       8.719   8.162  20.168  0.00  0.00    -0.274 OA
BRANCH  50  54
ATOM     54  CA  LEU A   1       9.653   6.326  21.357  0.00  0.00    +0.145 C 
BRANCH  54  55
ATOM     55  N   LEU A   1       8.898   5.432  20.488  0.00  0.00    -0.238 NA
ATOM     56  H   LEU A   1       9.135   5.421  19.475  0.00  0.00    +0.142 HD
ENDBRANCH  54  55
BRANCH  54  57
ATOM     57  CB  LEU A   1      11.117   6.323  20.964  0.00  0.00    +0.026 C 
BRANCH  57  58
ATOM     58  CG  LEU A   1      12.074   7.102  21.866  0.00  0.00    +0.002 C 
ATOM     59  CD2 LEU A   1      13.469   6.475  21.850  0.00  0.00    +0.000 C 
ATOM     60  CD1 LEU A   1      12.184   8.556  21.448  0.00  0.00    +0.000 C 
ENDBRANCH  57  58
ENDBRANCH  54  57
ENDBRANCH  50  54
ENDBRANCH  49  51
BRANCH  49  61
ATOM     61  CB  THR A   2       7.019   9.980  23.072  0.00  0.00    +0.137 C 
ATOM     62  CG2 THR A   2       5.823   9.345  22.380  0.00  0.00    +0.034 C 
BRANCH  61  63
ATOM     63  OG1 THR A   2       7.140   9.120  24.156  0.00  0.00    -0.382 OA
ATOM     64  HG1 THR A   2       7.248   8.192  23.829  0.00  0.00    +0.210 HD
ENDBRANCH  61  63
ENDBRANCH  49  61
ENDBRANCH  45  49
ENDBRANCH  44  47
BRANCH  44  65
ATOM     65  CB  ASP A   3      11.171  13.754  21.888  0.00  0.00    +0.143 C 
BRANCH  65  66
ATOM     66  CG  ASP A   3      12.418  14.461  22.431  0.00  0.00    +0.367 C 
ATOM     67  OD2 ASP A   3      12.949  14.344  23.590  0.00  0.00    -0.246 OA
ATOM     68  OD1 ASP A   3      12.974  15.274  21.636  0.00  0.00    -0.246 OA
ENDBRANCH  65  66
ENDBRANCH  44  65
ENDBRANCH  40  44
ENDBRANCH  39  41
BRANCH  39  69
ATOM     69  CB  SER A   4      10.850  14.991  27.068  0.00  0.00    +0.166 C 
BRANCH  69  70
ATOM     70  OG  SER A   4      11.998  15.735  26.734  0.00  0.00    -0.380 OA
ATOM     71  H   SER A   4      12.625  15.734  27.500  0.00  0.00    +0.211 HD
ENDBRANCH  69  70
ENDBRANCH  39  69
ENDBRANCH   1  39
TORSDOF 30
REMARK  Name = ../refined-set-2016/3ge7/3ge7_pocket.pdb
REMARK  215 active torsions:
REMARK  status: ('A' for Active; 'I' for Inactive)
REMARK    1  A    between atoms: _1  and  _3
REMARK    2  A    between atoms: _3  and  _4
REMARK    3  A    between atoms: _3  and  _6
REMARK    4  A    between atoms: _6  and  _7
REMARK    5  A    between atoms: _7  and  _8
REMARK    6  A    between atoms: _11  and  _12
REMARK    7  A    between atoms: _17  and  _19
REMARK    8  A    between atoms: _19  and  _20
REMARK    9  A    between atoms: _19  and  _22
REMARK   10  A    between atoms: _25  and  _27
REMARK   11  A    between atoms: _27  and  _28
REMARK   12  A    between atoms: _30  and  _32
REMARK   13  A    between atoms: _32  and  _33
REMARK   14  A    between atoms: _32  and  _35
REMARK   15  A    between atoms: _35  and  _36
REMARK   16  A    between atoms: _39  and  _41
REMARK   17  A    between atoms: _41  and  _42
REMARK   18  A    between atoms: _45  and  _47
REMARK   19  A    between atoms: _47  and  _48
REMARK   20  A    between atoms: _47  and  _50
REMARK   21  A    between atoms: _50  and  _51
REMARK   22  A    between atoms: _51  and  _52
REMARK   23  A    between atoms: _52  and  _53
REMARK   24  A    between atoms: _53  and  _54
REMARK   25  A    between atoms: _58  and  _60
REMARK   26  A    between atoms: _60  and  _61
REMARK   27  A    between atoms: _60  and  _63
REMARK   28  A    between atoms: _63  and  _64
REMARK   29  A    between atoms: _67  and  _69
REMARK   30  A    between atoms: _69  and  _70
REMARK   31  A    between atoms: _72  and  _74
REMARK   32  A    between atoms: _74  and  _75
REMARK   33  A    between atoms: _74  and  _77
REMARK   34  A    between atoms: _77  and  _78
REMARK   35  A    between atoms: _83  and  _85
REMARK   36  A    between atoms: _85  and  _86
REMARK   37  A    between atoms: _85  and  _88
REMARK   38  A    between atoms: _88  and  _89
REMARK   39  A    between atoms: _92  and  _94
REMARK   40  A    between atoms: _94  and  _95
REMARK   41  A    between atoms: _94  and  _97
REMARK   42  A    between atoms: _97  and  _98
REMARK   43  A    between atoms: _103  and  _104
REMARK   44  A    between atoms: _106  and  _108
REMARK   45  A    between atoms: _108  and  _109
REMARK   46  A    between atoms: _108  and  _111
REMARK   47  A    between atoms: _111  and  _112
REMARK   48  A    between atoms: _117  and  _119
REMARK   49  A    between atoms: _119  and  _120
REMARK   50  A    between atoms: _119  and  _122
REMARK   51  A    between atoms: _122  and  _123
REMARK   52  A    between atoms: _126  and  _128
REMARK   53  A    between atoms: _128  and  _129
REMARK   54  A    between atoms: _128  and  _131
REMARK   55  A    between atoms: _131  and  _132
REMARK   56  A    between atoms: _135  and  _137
REMARK   57  A    between atoms: _137  and  _138
REMARK   58  A    between atoms: _137  and  _140
REMARK   59  A    between atoms: _140  and  _141
REMARK   60  A    between atoms: _144  and  _146
REMARK   61  A    between atoms: _146  and  _147
REMARK   62  A    between atoms: _146  and  _149
REMARK   63  A    between atoms: _149  and  _150
REMARK   64  A    between atoms: _153  and  _155
REMARK   65  A    between atoms: _155  and  _156
REMARK   66  A    between atoms: _155  and  _158
REMARK   67  A    between atoms: _158  and  _159
REMARK   68  A    between atoms: _161  and  _163
REMARK   69  A    between atoms: _163  and  _164
REMARK   70  A    between atoms: _166  and  _168
REMARK   71  A    between atoms: _168  and  _169
REMARK   72  A    between atoms: _171  and  _173
REMARK   73  A    between atoms: _173  and  _174
REMARK   74  A    between atoms: _173  and  _176
REMARK   75  A    between atoms: _176  and  _177
REMARK   76  A    between atoms: _182  and  _183
REMARK   77  A    between atoms: _185  and  _187
REMARK   78  A    between atoms: _187  and  _188
REMARK   79  A    between atoms: _187  and  _190
REMARK   80  A    between atoms: _190  and  _191
REMARK   81  A    between atoms: _191  and  _192
REMARK   82  A    between atoms: _197  and  _199
REMARK   83  A    between atoms: _199  and  _200
REMARK   84  A    between atoms: _203  and  _205
REMARK   85  A    between atoms: _205  and  _206
REMARK   86  A    between atoms: _205  and  _208
REMARK   87  A    between atoms: _208  and  _209
REMARK   88  A    between atoms: _209  and  _210
REMARK   89  A    between atoms: _212  and  _214
REMARK   90  A    between atoms: _214  and  _215
REMARK   91  A    between atoms: _218  and  _220
REMARK   92  A    between atoms: _220  and  _221
REMARK   93  A    between atoms: _220  and  _223
REMARK   94  A    between atoms: _223  and  _224
REMARK   95  A    between atoms: _230  and  _232
REMARK   96  A    between atoms: _232  and  _233
REMARK   97  A    between atoms: _232  and  _235
REMARK   98  A    between atoms: _235  and  _236
REMARK   99  A    between atoms: _239  and  _241
REMARK  100  A    between atoms: _241  and  _242
REMARK  101  A    between atoms: _241  and  _244
REMARK  102  A    between atoms: _244  and  _245
REMARK  103  A    between atoms: _245  and  _246
REMARK  104  A    between atoms: _249  and  _251
REMARK  105  A    between atoms: _251  and  _252
REMARK  106  A    between atoms: _251  and  _254
REMARK  107  A    between atoms: _256  and  _258
REMARK  108  A    between atoms: _258  and  _259
REMARK  109  A    between atoms: _258  and  _261
REMARK  110  A    between atoms: _261  and  _262
REMARK  111  A    between atoms: _265  and  _267
REMARK  112  A    between atoms: _267  and  _268
REMARK  113  A    between atoms: _267  and  _270
REMARK  114  A    between atoms: _270  and  _271
REMARK  115  A    between atoms: _273  and  _275
REMARK  116  A    between atoms: _275  and  _276
REMARK  117  A    between atoms: _275  and  _278
REMARK  118  A    between atoms: _278  and  _279
REMARK  119  A    between atoms: _282  and  _284
REMARK  120  A    between atoms: _284  and  _285
REMARK  121  A    between atoms: _284  and  _287
REMARK  122  A    between atoms: _287  and  _288
REMARK  123  A    between atoms: _288  and  _289
REMARK  124  A    between atoms: _294  and  _296
REMARK  125  A    between atoms: _296  and  _297
REMARK  126  A    between atoms: _296  and  _299
REMARK  127  A    between atoms: _299  and  _300
REMARK  128  A    between atoms: _300  and  _301
REMARK  129  A    between atoms: _306  and  _308
REMARK  130  A    between atoms: _308  and  _309
REMARK  131  A    between atoms: _311  and  _313
REMARK  132  A    between atoms: _313  and  _314
REMARK  133  A    between atoms: _313  and  _316
REMARK  134  A    between atoms: _316  and  _317
REMARK  135  A    between atoms: _319  and  _321
REMARK  136  A    between atoms: _321  and  _322
REMARK  137  A    between atoms: _321  and  _324
REMARK  138  A    between atoms: _324  and  _325
REMARK  139  A    between atoms: _325  and  _326
REMARK  140  A    between atoms: _326  and  _327
REMARK  141  A    between atoms: _336  and  _338
REMARK  142  A    between atoms: _338  and  _339
REMARK  143  A    between atoms: _342  and  _344
REMARK  144  A    between atoms: _344  and  _345
REMARK  145  A    between atoms: _344  and  _347
REMARK  146  A    between atoms: _350  and  _352
REMARK  147  A    between atoms: _352  and  _353
REMARK  148  A    between atoms: _355  and  _357
REMARK  149  A    between atoms: _357  and  _358
REMARK  150  A    between atoms: _360  and  _362
REMARK  151  A    between atoms: _362  and  _363
REMARK  152  A    between atoms: _362  and  _365
REMARK  153  A    between atoms: _365  and  _366
REMARK  154  A    between atoms: _369  and  _371
REMARK  155  A    between atoms: _371  and  _372
REMARK  156  A    between atoms: _375  and  _377
REMARK  157  A    between atoms: _377  and  _378
REMARK  158  A    between atoms: _377  and  _380
REMARK  159  A    between atoms: _383  and  _385
REMARK  160  A    between atoms: _385  and  _386
REMARK  161  A    between atoms: _388  and  _390
REMARK  162  A    between atoms: _390  and  _391
REMARK  163  A    between atoms: _390  and  _393
REMARK  164  A    between atoms: _393  and  _394
REMARK  165  A    between atoms: _394  and  _395
REMARK  166  A    between atoms: _398  and  _400
REMARK  167  A    between atoms: _400  and  _401
REMARK  168  A    between atoms: _400  and  _403
REMARK  169  A    between atoms: _403  and  _404
REMARK  170  A    between atoms: _404  and  _405
REMARK  171  A    between atoms: _407  and  _409
REMARK  172  A    between atoms: _409  and  _410
REMARK  173  A    between atoms: _409  and  _412
REMARK  174  A    between atoms: _412  and  _413
REMARK  175  A    between atoms: _418  and  _419
REMARK  176  A    between atoms: _421  and  _423
REMARK  177  A    between atoms: _423  and  _424
REMARK  178  A    between atoms: _423  and  _426
REMARK  179  A    between atoms: _426  and  _427
REMARK  180  A    between atoms: _430  and  _432
REMARK  181  A    between atoms: _432  and  _433
REMARK  182  A    between atoms: _432  and  _435
REMARK  183  A    between atoms: _435  and  _436
REMARK  184  A    between atoms: _436  and  _437
REMARK  185  A    between atoms: _439  and  _441
REMARK  186  A    between atoms: _441  and  _442
REMARK  187  A    between atoms: _444  and  _446
REMARK  188  A    between atoms: _446  and  _447
REMARK  189  A    between atoms: _446  and  _449
REMARK  190  A    between atoms: _452  and  _454
REMARK  191  A    between atoms: _454  and  _455
REMARK  192  A    between atoms: _457  and  _459
REMARK  193  A    between atoms: _459  and  _460
REMARK  194  A    between atoms: _459  and  _462
REMARK  195  A    between atoms: _462  and  _463
REMARK  196  A    between atoms: _469  and  _471
REMARK  197  A    between atoms: _471  and  _472
REMARK  198  A    between atoms: _471  and  _474
REMARK  199  A    between atoms: _474  and  _475
REMARK  200  A    between atoms: _478  and  _480
REMARK  201  A    between atoms: _480  and  _481
REMARK  202  A    between atoms: _480  and  _483
REMARK  203  A    between atoms: _485  and  _487
REMARK  204  A    between atoms: _487  and  _488
REMARK  205  A    between atoms: _487  and  _490
REMARK  206  A    between atoms: _493  and  _495
REMARK  207  A    between atoms: _495  and  _496
REMARK  208  A    between atoms: _495  and  _498
REMARK  209  A    between atoms: _498  and  _499
REMARK  210  A    between atoms: _502  and  _504
REMARK  211  A    between atoms: _504  and  _505
REMARK  212  A    between atoms: _504  and  _507
REMARK  213  A    between atoms: _507  and  _508
REMARK  214  A    between atoms: _508  and  _509
REMARK  215  A    between atoms: _509  and  _510
REMARK                            x       y       z     vdW  Elec       q    Type
REMARK                         _______ _______ _______ _____ _____    ______ ____
ROOT
ATOM      1  CA  ALA A   1      12.512  25.626  22.734  0.00  0.00    +0.133 C 
ATOM      2  CB  ALA A   1      13.799  25.123  23.357  0.00  0.00    +0.027 C 
ENDROOT
BRANCH   1   3
ATOM      3  N   ALA A   1      11.403  24.688  22.938  0.00  0.00    -0.239 NA
ATOM      4  H   ALA A   1      11.550  23.770  23.405  0.00  0.00    +0.142 HD
ENDBRANCH   1   3
BRANCH   1   5
ATOM      5  C   ALA A   1      12.714  25.886  21.243  0.00  0.00    +0.224 C 
ATOM      6  O   ALA A   1      12.820  24.948  20.449  0.00  0.00    -0.287 OA
ENDBRANCH   1   5
TORSDOF 2
REMARK  Name = ../refined-set-2016/3ge7/3ge7_pocket.pdb
REMARK  215 active torsions:
REMARK  status: ('A' for Active; 'I' for Inactive)
REMARK    1  A    between atoms: _1  and  _3
REMARK    2  A    between atoms: _3  and  _4
REMARK    3  A    between atoms: _3  and  _6
REMARK    4  A    between atoms: _6  and  _7
REMARK    5  A    between atoms: _7  and  _8
REMARK    6  A    between atoms: _11  and  _12
REMARK    7  A    between atoms: _17  and  _19
REMARK    8  A    between atoms: _19  and  _20
REMARK    9  A    between atoms: _19  and  _22
REMARK   10  A    between atoms: _25  and  _27
REMARK   11  A    between atoms: _27  and  _28
REMARK   12  A    between atoms: _30  and  _32
REMARK   13  A    between atoms: _32  and  _33
REMARK   14  A    between atoms: _32  and  _35
REMARK   15  A    between atoms: _35  and  _36
REMARK   16  A    between atoms: _39  and  _41
REMARK   17  A    between atoms: _41  and  _42
REMARK   18  A    between atoms: _45  and  _47
REMARK   19  A    between atoms: _47  and  _48
REMARK   20  A    between atoms: _47  and  _50
REMARK   21  A    between atoms: _50  and  _51
REMARK   22  A    between atoms: _51  and  _52
REMARK   23  A    between atoms: _52  and  _53
REMARK   24  A    between atoms: _53  and  _54
REMARK   25  A    between atoms: _58  and  _60
REMARK   26  A    between atoms: _60  and  _61
REMARK   27  A    between atoms: _60  and  _63
REMARK   28  A    between atoms: _63  and  _64
REMARK   29  A    between atoms: _67  and  _69
REMARK   30  A    between atoms: _69  and  _70
REMARK   31  A    between atoms: _72  and  _74
REMARK   32  A    between atoms: _74  and  _75
REMARK   33  A    between atoms: _74  and  _77
REMARK   34  A    between atoms: _77  and  _78
REMARK   35  A    between atoms: _83  and  _85
REMARK   36  A    between atoms: _85  and  _86
REMARK   37  A    between atoms: _85  and  _88
REMARK   38  A    between atoms: _88  and  _89
REMARK   39  A    between atoms: _92  and  _94
REMARK   40  A    between atoms: _94  and  _95
REMARK   41  A    between atoms: _94  and  _97
REMARK   42  A    between atoms: _97  and  _98
REMARK   43  A    between atoms: _103  and  _104
REMARK   44  A    between atoms: _106  and  _108
REMARK   45  A    between atoms: _108  and  _109
REMARK   46  A    between atoms: _108  and  _111
REMARK   47  A    between atoms: _111  and  _112
REMARK   48  A    between atoms: _117  and  _119
REMARK   49  A    between atoms: _119  and  _120
REMARK   50  A    between atoms: _119  and  _122
REMARK   51  A    between atoms: _122  and  _123
REMARK   52  A    between atoms: _126  and  _128
REMARK   53  A    between atoms: _128  and  _129
REMARK   54  A    between atoms: _128  and  _131
REMARK   55  A    between atoms: _131  and  _132
REMARK   56  A    between atoms: _135  and  _137
REMARK   57  A    between atoms: _137  and  _138
REMARK   58  A    between atoms: _137  and  _140
REMARK   59  A    between atoms: _140  and  _141
REMARK   60  A    between atoms: _144  and  _146
REMARK   61  A    between atoms: _146  and  _147
REMARK   62  A    between atoms: _146  and  _149
REMARK   63  A    between atoms: _149  and  _150
REMARK   64  A    between atoms: _153  and  _155
REMARK   65  A    between atoms: _155  and  _156
REMARK   66  A    between atoms: _155  and  _158
REMARK   67  A    between atoms: _158  and  _159
REMARK   68  A    between atoms: _161  and  _163
REMARK   69  A    between atoms: _163  and  _164
REMARK   70  A    between atoms: _166  and  _168
REMARK   71  A    between atoms: _168  and  _169
REMARK   72  A    between atoms: _171  and  _173
REMARK   73  A    between atoms: _173  and  _174
REMARK   74  A    between atoms: _173  and  _176
REMARK   75  A    between atoms: _176  and  _177
REMARK   76  A    between atoms: _182  and  _183
REMARK   77  A    between atoms: _185  and  _187
REMARK   78  A    between atoms: _187  and  _188
REMARK   79  A    between atoms: _187  and  _190
REMARK   80  A    between atoms: _190  and  _191
REMARK   81  A    between atoms: _191  and  _192
REMARK   82  A    between atoms: _197  and  _199
REMARK   83  A    between atoms: _199  and  _200
REMARK   84  A    between atoms: _203  and  _205
REMARK   85  A    between atoms: _205  and  _206
REMARK   86  A    between atoms: _205  and  _208
REMARK   87  A    between atoms: _208  and  _209
REMARK   88  A    between atoms: _209  and  _210
REMARK   89  A    between atoms: _212  and  _214
REMARK   90  A    between atoms: _214  and  _215
REMARK   91  A    between atoms: _218  and  _220
REMARK   92  A    between atoms: _220  and  _221
REMARK   93  A    between atoms: _220  and  _223
REMARK   94  A    between atoms: _223  and  _224
REMARK   95  A    between atoms: _230  and  _232
REMARK   96  A    between atoms: _232  and  _233
REMARK   97  A    between atoms: _232  and  _235
REMARK   98  A    between atoms: _235  and  _236
REMARK   99  A    between atoms: _239  and  _241
REMARK  100  A    between atoms: _241  and  _242
REMARK  101  A    between atoms: _241  and  _244
REMARK  102  A    between atoms: _244  and  _245
REMARK  103  A    between atoms: _245  and  _246
REMARK  104  A    between atoms: _249  and  _251
REMARK  105  A    between atoms: _251  and  _252
REMARK  106  A    between atoms: _251  and  _254
REMARK  107  A    between atoms: _256  and  _258
REMARK  108  A    between atoms: _258  and  _259
REMARK  109  A    between atoms: _258  and  _261
REMARK  110  A    between atoms: _261  and  _262
REMARK  111  A    between atoms: _265  and  _267
REMARK  112  A    between atoms: _267  and  _268
REMARK  113  A    between atoms: _267  and  _270
REMARK  114  A    between atoms: _270  and  _271
REMARK  115  A    between atoms: _273  and  _275
REMARK  116  A    between atoms: _275  and  _276
REMARK  117  A    between atoms: _275  and  _278
REMARK  118  A    between atoms: _278  and  _279
REMARK  119  A    between atoms: _282  and  _284
REMARK  120  A    between atoms: _284  and  _285
REMARK  121  A    between atoms: _284  and  _287
REMARK  122  A    between atoms: _287  and  _288
REMARK  123  A    between atoms: _288  and  _289
REMARK  124  A    between atoms: _294  and  _296
REMARK  125  A    between atoms: _296  and  _297
REMARK  126  A    between atoms: _296  and  _299
REMARK  127  A    between atoms: _299  and  _300
REMARK  128  A    between atoms: _300  and  _301
REMARK  129  A    between atoms: _306  and  _308
REMARK  130  A    between atoms: _308  and  _309
REMARK  131  A    between atoms: _311  and  _313
REMARK  132  A    between atoms: _313  and  _314
REMARK  133  A    between atoms: _313  and  _316
REMARK  134  A    between atoms: _316  and  _317
REMARK  135  A    between atoms: _319  and  _321
REMARK  136  A    between atoms: _321  and  _322
REMARK  137  A    between atoms: _321  and  _324
REMARK  138  A    between atoms: _324  and  _325
REMARK  139  A    between atoms: _325  and  _326
REMARK  140  A    between atoms: _326  and  _327
REMARK  141  A    between atoms: _336  and  _338
REMARK  142  A    between atoms: _338  and  _339
REMARK  143  A    between atoms: _342  and  _344
REMARK  144  A    between atoms: _344  and  _345
REMARK  145  A    between atoms: _344  and  _347
REMARK  146  A    between atoms: _350  and  _352
REMARK  147  A    between atoms: _352  and  _353
REMARK  148  A    between atoms: _355  and  _357
REMARK  149  A    between atoms: _357  and  _358
REMARK  150  A    between atoms: _360  and  _362
REMARK  151  A    between atoms: _362  and  _363
REMARK  152  A    between atoms: _362  and  _365
REMARK  153  A    between atoms: _365  and  _366
REMARK  154  A    between atoms: _369  and  _371
REMARK  155  A    between atoms: _371  and  _372
REMARK  156  A    between atoms: _375  and  _377
REMARK  157  A    between atoms: _377  and  _378
REMARK  158  A    between atoms: _377  and  _380
REMARK  159  A    between atoms: _383  and  _385
REMARK  160  A    between atoms: _385  and  _386
REMARK  161  A    between atoms: _388  and  _390
REMARK  162  A    between atoms: _390  and  _391
REMARK  163  A    between atoms: _390  and  _393
REMARK  164  A    between atoms: _393  and  _394
REMARK  165  A    between atoms: _394  and  _395
REMARK  166  A    between atoms: _398  and  _400
REMARK  167  A    between atoms: _400  and  _401
REMARK  168  A    between atoms: _400  and  _403
REMARK  169  A    between atoms: _403  and  _404
REMARK  170  A    between atoms: _404  and  _405
REMARK  171  A    between atoms: _407  and  _409
REMARK  172  A    between atoms: _409  and  _410
REMARK  173  A    between atoms: _409  and  _412
REMARK  174  A    between atoms: _412  and  _413
REMARK  175  A    between atoms: _418  and  _419
REMARK  176  A    between atoms: _421  and  _423
REMARK  177  A    between atoms: _423  and  _424
REMARK  178  A    between atoms: _423  and  _426
REMARK  179  A    between atoms: _426  and  _427
REMARK  180  A    between atoms: _430  and  _432
REMARK  181  A    between atoms: _432  and  _433
REMARK  182  A    between atoms: _432  and  _435
REMARK  183  A    between atoms: _435  and  _436
REMARK  184  A    between atoms: _436  and  _437
REMARK  185  A    between atoms: _439  and  _441
REMARK  186  A    between atoms: _441  and  _442
REMARK  187  A    between atoms: _444  and  _446
REMARK  188  A    between atoms: _446  and  _447
REMARK  189  A    between atoms: _446  and  _449
REMARK  190  A    between atoms: _452  and  _454
REMARK  191  A    between atoms: _454  and  _455
REMARK  192  A    between atoms: _457  and  _459
REMARK  193  A    between atoms: _459  and  _460
REMARK  194  A    between atoms: _459  and  _462
REMARK  195  A    between atoms: _462  and  _463
REMARK  196  A    between atoms: _469  and  _471
REMARK  197  A    between atoms: _471  and  _472
REMARK  198  A    between atoms: _471  and  _474
REMARK  199  A    between atoms: _474  and  _475
REMARK  200  A    between atoms: _478  and  _480
REMARK  201  A    between atoms: _480  and  _481
REMARK  202  A    between atoms: _480  and  _483
REMARK  203  A    between atoms: _485  and  _487
REMARK  204  A    between atoms: _487  and  _488
REMARK  205  A    between atoms: _487  and  _490
REMARK  206  A    between atoms: _493  and  _495
REMARK  207  A    between atoms: _495  and  _496
REMARK  208  A    between atoms: _495  and  _498
REMARK  209  A    between atoms: _498  and  _499
REMARK  210  A    between atoms: _502  and  _504
REMARK  211  A    between atoms: _504  and  _505
REMARK  212  A    between atoms: _504  and  _507
REMARK  213  A    between atoms: _507  and  _508
REMARK  214  A    between atoms: _508  and  _509
REMARK  215  A    between atoms: _509  and  _510
REMARK                            x       y       z     vdW  Elec       q    Type
REMARK                         _______ _______ _______ _____ _____    ______ ____
ROOT
ATOM      1  CA  ASP A   4      15.552  18.140  29.647  0.00  0.00    +0.160 C 
ENDROOT
BRANCH   1   4
ATOM      2  C   PHE A   3      13.701  16.833  30.499  0.00  0.00    +0.241 C 
ATOM      3  O   PHE A   3      14.088  16.856  31.682  0.00  0.00    -0.273 OA
ATOM      4  N   ASP A   4      14.273  17.467  29.520  0.00  0.00    -0.297 N 
ATOM      5  H   ASP A   4      13.790  17.493  28.599  0.00  0.00    +0.150 HD
BRANCH   2   6
ATOM      6  CA  PHE A   3      12.447  16.037  30.185  0.00  0.00    +0.153 C 
BRANCH   6   8
ATOM      7  C   ALA A   2      13.182  13.748  29.762  0.00  0.00    +0.241 C 
ATOM      8  N   PHE A   3      12.595  14.632  30.550  0.00  0.00    -0.297 N 
ATOM      9  H   PHE A   3      12.223  14.313  31.468  0.00  0.00    +0.150 HD
ATOM     10  O   ALA A   2      13.632  14.029  28.635  0.00  0.00    -0.273 OA
BRANCH   7  11
ATOM     11  CA  ALA A   2      13.290  12.356  30.381  0.00  0.00    +0.149 C 
ATOM     12  CB  ALA A   2      14.608  12.255  31.110  0.00  0.00    +0.031 C 
BRANCH  11  14
ATOM     13  C   MET A   1      12.269  11.299  28.468  0.00  0.00    +0.238 C 
ATOM     14  N   ALA A   2      13.262  11.369  29.319  0.00  0.00    -0.297 N 
ATOM     15  H   ALA A   2      14.052  10.698  29.231  0.00  0.00    +0.150 HD
ATOM     16  O   MET A   1      11.223  11.954  28.639  0.00  0.00    -0.274 OA
BRANCH  13  17
ATOM     17  CA  MET A   1      12.510  10.399  27.266  0.00  0.00    +0.146 C 
BRANCH  17  18
ATOM     18  N   MET A   1      11.416   9.505  27.033  0.00  0.00    -0.238 NA
ATOM     19  H   MET A   1      10.694   9.839  26.364  0.00  0.00    +0.142 HD
ENDBRANCH  17  18
BRANCH  17  20
ATOM     20  CB  MET A   1      12.799  11.278  26.034  0.00  0.00    +0.038 C 
BRANCH  20  21
ATOM     21  CG  MET A   1      13.049  10.470  24.757  0.00  0.00    +0.060 C 
BRANCH  21  22
ATOM     22  SD  MET A   1      14.359   9.228  24.883  0.00  0.00    -0.139 S 
ATOM     23  CE  MET A   1      15.739  10.267  25.370  0.00  0.00    +0.069 C 
ENDBRANCH  21  22
ENDBRANCH  20  21
ENDBRANCH  17  20
ENDBRANCH  13  17
ENDBRANCH  11  14
ENDBRANCH   7  11
ENDBRANCH   6   8
BRANCH   6  24
ATOM     24  CB  PHE A   3      11.298  16.647  30.977  0.00  0.00    +0.055 C 
BRANCH  24  25
ATOM     25  CG  PHE A   3      10.868  18.042  30.532  0.00  0.00    -0.020 A 
ATOM     26  CD2 PHE A   3      11.072  19.079  31.428  0.00  0.00    -0.004 A 
ATOM     27  CE2 PHE A   3      10.700  20.364  31.087  0.00  0.00    -0.000 A 
ATOM     28  CZ  PHE A   3      10.124  20.570  29.859  0.00  0.00    -0.000 A 
ATOM     29  CE1 PHE A   3       9.921  19.553  28.954  0.00  0.00    -0.000 A 
ATOM     30  CD1 PHE A   3      10.293  18.268  29.315  0.00  0.00    -0.004 A 
ENDBRANCH  24  25
ENDBRANCH   6  24
ENDBRANCH   2   6
ENDBRANCH   1   4
BRANCH   1  31
ATOM     31  C   ASP A   4      15.494  19.562  29.105  0.00  0.00    +0.241 C 
ATOM     32  N   GLU A   5      16.565  20.333  29.300  0.00  0.00    -0.297 N 
ATOM     33  H   GLU A   5      17.319  19.959  29.911  0.00  0.00    +0.150 HD
ATOM     34  O   ASP A   4      14.489  19.953  28.535  0.00  0.00    -0.273 OA
BRANCH  32  35
ATOM     35  CA  GLU A   5      16.765  21.667  28.722  0.00  0.00    +0.149 C 
BRANCH  35  36
ATOM     36  C   GLU A   5      17.787  21.463  27.608  0.00  0.00    +0.241 C 
ATOM     37  O   GLU A   5      18.937  21.078  27.881  0.00  0.00    -0.273 OA
ATOM     38  N   CYS A   6      17.451  21.630  26.320  0.00  0.00    -0.296 N 
ATOM     39  H   CYS A   6      16.476  21.862  26.041  0.00  0.00    +0.150 HD
BRANCH  38  40
ATOM     40  CA  CYS A   6      18.525  21.470  25.309  0.00  0.00    +0.160 C 
BRANCH  40  41
ATOM     41  C   CYS A   6      19.321  22.768  25.421  0.00  0.00    +0.242 C 
ATOM     42  O   CYS A   6      18.762  23.818  25.742  0.00  0.00    -0.273 OA
ATOM     43  N   THR A   7      20.621  22.690  25.233  0.00  0.00    -0.296 N 
ATOM     44  H   THR A   7      21.028  21.770  24.968  0.00  0.00    +0.150 HD
BRANCH  43  45
ATOM     45  CA  THR A   7      21.525  23.838  25.379  0.00  0.00    +0.164 C 
BRANCH  45  46
ATOM     46  C   THR A   7      21.848  24.400  24.005  0.00  0.00    +0.229 C 
ATOM     47  O   THR A   7      22.346  23.658  23.140  0.00  0.00    -0.286 OA
ENDBRANCH  45  46
BRANCH  45  48
ATOM     48  CB  THR A   7      22.804  23.359  26.083  0.00  0.00    +0.136 C 
ATOM     49  CG2 THR A   7      23.732  24.546  26.279  0.00  0.00    +0.034 C 
BRANCH  48  50
ATOM     50  OG1 THR A   7      22.472  22.776  27.362  0.00  0.00    -0.382 OA
ATOM     51  HG1 THR A   7      23.301  22.470  27.809  0.00  0.00    +0.210 HD
ENDBRANCH  48  50
ENDBRANCH  45  48
ENDBRANCH  43  45
ENDBRANCH  40  41
BRANCH  40  52
ATOM     52  CB  CYS A   6      18.016  21.138  23.918  0.00  0.00    +0.098 C 
ATOM     53  SG  CYS A   6      19.236  20.841  22.590  0.00  0.00    -0.080 S 
ENDBRANCH  40  52
ENDBRANCH  38  40
ENDBRANCH  35  36
BRANCH  35  54
ATOM     54  CB  GLU A   5      17.166  22.613  29.847  0.00  0.00    +0.041 C 
BRANCH  54  55
ATOM     55  CG  GLU A   5      16.954  24.095  29.554  0.00  0.00    +0.116 C 
BRANCH  55  56
ATOM     56  CD  GLU A   5      17.369  25.016  30.671  0.00  0.00    +0.365 C 
ATOM     57  OE2 GLU A   5      16.486  25.716  31.220  0.00  0.00    -0.246 OA
ATOM     58  OE1 GLU A   5      18.574  25.064  31.008  0.00  0.00    -0.246 OA
ENDBRANCH  55  56
ENDBRANCH  54  55
ENDBRANCH  35  54
ENDBRANCH  32  35
ENDBRANCH   1  31
BRANCH   1  59
ATOM     59  CB  ASP A   4      16.654  17.356  28.920  0.00  0.00    +0.143 C 
BRANCH  59  60
ATOM     60  CG  ASP A   4      16.463  17.293  27.412  0.00  0.00    +0.367 C 
ATOM     61  OD2 ASP A   4      15.317  17.383  26.937  0.00  0.00    -0.246 OA
ATOM     62  OD1 ASP A   4      17.469  17.112  26.691  0.00  0.00    -0.246 OA
ENDBRANCH  59  60
ENDBRANCH   1  59
TORSDOF 27
REMARK  Name = ../refined-set-2016/3ge7/3ge7_pocket.pdb
REMARK  215 active torsions:
REMARK  status: ('A' for Active; 'I' for Inactive)
REMARK    1  A    between atoms: _1  and  _3
REMARK    2  A    between atoms: _3  and  _4
REMARK    3  A    between atoms: _3  and  _6
REMARK    4  A    between atoms: _6  and  _7
REMARK    5  A    between atoms: _7  and  _8
REMARK    6  A    between atoms: _11  and  _12
REMARK    7  A    between atoms: _17  and  _19
REMARK    8  A    between atoms: _19  and  _20
REMARK    9  A    between atoms: _19  and  _22
REMARK   10  A    between atoms: _25  and  _27
REMARK   11  A    between atoms: _27  and  _28
REMARK   12  A    between atoms: _30  and  _32
REMARK   13  A    between atoms: _32  and  _33
REMARK   14  A    between atoms: _32  and  _35
REMARK   15  A    between atoms: _35  and  _36
REMARK   16  A    between atoms: _39  and  _41
REMARK   17  A    between atoms: _41  and  _42
REMARK   18  A    between atoms: _45  and  _47
REMARK   19  A    between atoms: _47  and  _48
REMARK   20  A    between atoms: _47  and  _50
REMARK   21  A    between atoms: _50  and  _51
REMARK   22  A    between atoms: _51  and  _52
REMARK   23  A    between atoms: _52  and  _53
REMARK   24  A    between atoms: _53  and  _54
REMARK   25  A    between atoms: _58  and  _60
REMARK   26  A    between atoms: _60  and  _61
REMARK   27  A    between atoms: _60  and  _63
REMARK   28  A    between atoms: _63  and  _64
REMARK   29  A    between atoms: _67  and  _69
REMARK   30  A    between atoms: _69  and  _70
REMARK   31  A    between atoms: _72  and  _74
REMARK   32  A    between atoms: _74  and  _75
REMARK   33  A    between atoms: _74  and  _77
REMARK   34  A    between atoms: _77  and  _78
REMARK   35  A    between atoms: _83  and  _85
REMARK   36  A    between atoms: _85  and  _86
REMARK   37  A    between atoms: _85  and  _88
REMARK   38  A    between atoms: _88  and  _89
REMARK   39  A    between atoms: _92  and  _94
REMARK   40  A    between atoms: _94  and  _95
REMARK   41  A    between atoms: _94  and  _97
REMARK   42  A    between atoms: _97  and  _98
REMARK   43  A    between atoms: _103  and  _104
REMARK   44  A    between atoms: _106  and  _108
REMARK   45  A    between atoms: _108  and  _109
REMARK   46  A    between atoms: _108  and  _111
REMARK   47  A    between atoms: _111  and  _112
REMARK   48  A    between atoms: _117  and  _119
REMARK   49  A    between atoms: _119  and  _120
REMARK   50  A    between atoms: _119  and  _122
REMARK   51  A    between atoms: _122  and  _123
REMARK   52  A    between atoms: _126  and  _128
REMARK   53  A    between atoms: _128  and  _129
REMARK   54  A    between atoms: _128  and  _131
REMARK   55  A    between atoms: _131  and  _132
REMARK   56  A    between atoms: _135  and  _137
REMARK   57  A    between atoms: _137  and  _138
REMARK   58  A    between atoms: _137  and  _140
REMARK   59  A    between atoms: _140  and  _141
REMARK   60  A    between atoms: _144  and  _146
REMARK   61  A    between atoms: _146  and  _147
REMARK   62  A    between atoms: _146  and  _149
REMARK   63  A    between atoms: _149  and  _150
REMARK   64  A    between atoms: _153  and  _155
REMARK   65  A    between atoms: _155  and  _156
REMARK   66  A    between atoms: _155  and  _158
REMARK   67  A    between atoms: _158  and  _159
REMARK   68  A    between atoms: _161  and  _163
REMARK   69  A    between atoms: _163  and  _164
REMARK   70  A    between atoms: _166  and  _168
REMARK   71  A    between atoms: _168  and  _169
REMARK   72  A    between atoms: _171  and  _173
REMARK   73  A    between atoms: _173  and  _174
REMARK   74  A    between atoms: _173  and  _176
REMARK   75  A    between atoms: _176  and  _177
REMARK   76  A    between atoms: _182  and  _183
REMARK   77  A    between atoms: _185  and  _187
REMARK   78  A    between atoms: _187  and  _188
REMARK   79  A    between atoms: _187  and  _190
REMARK   80  A    between atoms: _190  and  _191
REMARK   81  A    between atoms: _191  and  _192
REMARK   82  A    between atoms: _197  and  _199
REMARK   83  A    between atoms: _199  and  _200
REMARK   84  A    between atoms: _203  and  _205
REMARK   85  A    between atoms: _205  and  _206
REMARK   86  A    between atoms: _205  and  _208
REMARK   87  A    between atoms: _208  and  _209
REMARK   88  A    between atoms: _209  and  _210
REMARK   89  A    between atoms: _212  and  _214
REMARK   90  A    between atoms: _214  and  _215
REMARK   91  A    between atoms: _218  and  _220
REMARK   92  A    between atoms: _220  and  _221
REMARK   93  A    between atoms: _220  and  _223
REMARK   94  A    between atoms: _223  and  _224
REMARK   95  A    between atoms: _230  and  _232
REMARK   96  A    between atoms: _232  and  _233
REMARK   97  A    between atoms: _232  and  _235
REMARK   98  A    between atoms: _235  and  _236
REMARK   99  A    between atoms: _239  and  _241
REMARK  100  A    between atoms: _241  and  _242
REMARK  101  A    between atoms: _241  and  _244
REMARK  102  A    between atoms: _244  and  _245
REMARK  103  A    between atoms: _245  and  _246
REMARK  104  A    between atoms: _249  and  _251
REMARK  105  A    between atoms: _251  and  _252
REMARK  106  A    between atoms: _251  and  _254
REMARK  107  A    between atoms: _256  and  _258
REMARK  108  A    between atoms: _258  and  _259
REMARK  109  A    between atoms: _258  and  _261
REMARK  110  A    between atoms: _261  and  _262
REMARK  111  A    between atoms: _265  and  _267
REMARK  112  A    between atoms: _267  and  _268
REMARK  113  A    between atoms: _267  and  _270
REMARK  114  A    between atoms: _270  and  _271
REMARK  115  A    between atoms: _273  and  _275
REMARK  116  A    between atoms: _275  and  _276
REMARK  117  A    between atoms: _275  and  _278
REMARK  118  A    between atoms: _278  and  _279
REMARK  119  A    between atoms: _282  and  _284
REMARK  120  A    between atoms: _284  and  _285
REMARK  121  A    between atoms: _284  and  _287
REMARK  122  A    between atoms: _287  and  _288
REMARK  123  A    between atoms: _288  and  _289
REMARK  124  A    between atoms: _294  and  _296
REMARK  125  A    between atoms: _296  and  _297
REMARK  126  A    between atoms: _296  and  _299
REMARK  127  A    between atoms: _299  and  _300
REMARK  128  A    between atoms: _300  and  _301
REMARK  129  A    between atoms: _306  and  _308
REMARK  130  A    between atoms: _308  and  _309
REMARK  131  A    between atoms: _311  and  _313
REMARK  132  A    between atoms: _313  and  _314
REMARK  133  A    between atoms: _313  and  _316
REMARK  134  A    between atoms: _316  and  _317
REMARK  135  A    between atoms: _319  and  _321
REMARK  136  A    between atoms: _321  and  _322
REMARK  137  A    between atoms: _321  and  _324
REMARK  138  A    between atoms: _324  and  _325
REMARK  139  A    between atoms: _325  and  _326
REMARK  140  A    between atoms: _326  and  _327
REMARK  141  A    between atoms: _336  and  _338
REMARK  142  A    between atoms: _338  and  _339
REMARK  143  A    between atoms: _342  and  _344
REMARK  144  A    between atoms: _344  and  _345
REMARK  145  A    between atoms: _344  and  _347
REMARK  146  A    between atoms: _350  and  _352
REMARK  147  A    between atoms: _352  and  _353
REMARK  148  A    between atoms: _355  and  _357
REMARK  149  A    between atoms: _357  and  _358
REMARK  150  A    between atoms: _360  and  _362
REMARK  151  A    between atoms: _362  and  _363
REMARK  152  A    between atoms: _362  and  _365
REMARK  153  A    between atoms: _365  and  _366
REMARK  154  A    between atoms: _369  and  _371
REMARK  155  A    between atoms: _371  and  _372
REMARK  156  A    between atoms: _375  and  _377
REMARK  157  A    between atoms: _377  and  _378
REMARK  158  A    between atoms: _377  and  _380
REMARK  159  A    between atoms: _383  and  _385
REMARK  160  A    between atoms: _385  and  _386
REMARK  161  A    between atoms: _388  and  _390
REMARK  162  A    between atoms: _390  and  _391
REMARK  163  A    between atoms: _390  and  _393
REMARK  164  A    between atoms: _393  and  _394
REMARK  165  A    between atoms: _394  and  _395
REMARK  166  A    between atoms: _398  and  _400
REMARK  167  A    between atoms: _400  and  _401
REMARK  168  A    between atoms: _400  and  _403
REMARK  169  A    between atoms: _403  and  _404
REMARK  170  A    between atoms: _404  and  _405
REMARK  171  A    between atoms: _407  and  _409
REMARK  172  A    between atoms: _409  and  _410
REMARK  173  A    between atoms: _409  and  _412
REMARK  174  A    between atoms: _412  and  _413
REMARK  175  A    between atoms: _418  and  _419
REMARK  176  A    between atoms: _421  and  _423
REMARK  177  A    between atoms: _423  and  _424
REMARK  178  A    between atoms: _423  and  _426
REMARK  179  A    between atoms: _426  and  _427
REMARK  180  A    between atoms: _430  and  _432
REMARK  181  A    between atoms: _432  and  _433
REMARK  182  A    between atoms: _432  and  _435
REMARK  183  A    between atoms: _435  and  _436
REMARK  184  A    between atoms: _436  and  _437
REMARK  185  A    between atoms: _439  and  _441
REMARK  186  A    between atoms: _441  and  _442
REMARK  187  A    between atoms: _444  and  _446
REMARK  188  A    between atoms: _446  and  _447
REMARK  189  A    between atoms: _446  and  _449
REMARK  190  A    between atoms: _452  and  _454
REMARK  191  A    between atoms: _454  and  _455
REMARK  192  A    between atoms: _457  and  _459
REMARK  193  A    between atoms: _459  and  _460
REMARK  194  A    between atoms: _459  and  _462
REMARK  195  A    between atoms: _462  and  _463
REMARK  196  A    between atoms: _469  and  _471
REMARK  197  A    between atoms: _471  and  _472
REMARK  198  A    between atoms: _471  and  _474
REMARK  199  A    between atoms: _474  and  _475
REMARK  200  A    between atoms: _478  and  _480
REMARK  201  A    between atoms: _480  and  _481
REMARK  202  A    between atoms: _480  and  _483
REMARK  203  A    between atoms: _485  and  _487
REMARK  204  A    between atoms: _487  and  _488
REMARK  205  A    between atoms: _487  and  _490
REMARK  206  A    between atoms: _493  and  _495
REMARK  207  A    between atoms: _495  and  _496
REMARK  208  A    between atoms: _495  and  _498
REMARK  209  A    between atoms: _498  and  _499
REMARK  210  A    between atoms: _502  and  _504
REMARK  211  A    between atoms: _504  and  _505
REMARK  212  A    between atoms: _504  and  _507
REMARK  213  A    between atoms: _507  and  _508
REMARK  214  A    between atoms: _508  and  _509
REMARK  215  A    between atoms: _509  and  _510
REMARK                            x       y       z     vdW  Elec       q    Type
REMARK                         _______ _______ _______ _____ _____    ______ ____
ROOT
ATOM      1  CA  SER A   1      18.697  18.975  33.134  0.00  0.00    +0.163 C 
ENDROOT
BRANCH   1   2
ATOM      2  N   SER A   1      19.195  20.191  33.792  0.00  0.00    -0.237 NA
ATOM      3  H   SER A   1      19.965  20.760  33.385  0.00  0.00    +0.142 HD
ENDBRANCH   1   2
BRANCH   1   4
ATOM      4  CB  SER A   1      18.848  17.777  34.044  0.00  0.00    +0.227 C 
ATOM      5  OG  SER A   1      18.055  16.840  34.042  0.00  0.00    -0.287 OA
ENDBRANCH   1   4
BRANCH   1   6
ATOM      6  C   SER A   1      19.450  18.694  31.817  0.00  0.00    +0.162 C 
BRANCH   6   7
ATOM      7  O   SER A   1      18.980  19.624  30.848  0.00  0.00    -0.380 OA
ATOM      8  H   SER A   1      19.162  20.545  31.161  0.00  0.00    +0.211 HD
ENDBRANCH   6   7
ENDBRANCH   1   6
TORSDOF 4
REMARK  Name = ../refined-set-2016/3ge7/3ge7_pocket.pdb
REMARK  215 active torsions:
REMARK  status: ('A' for Active; 'I' for Inactive)
REMARK    1  A    between atoms: _1  and  _3
REMARK    2  A    between atoms: _3  and  _4
REMARK    3  A    between atoms: _3  and  _6
REMARK    4  A    between atoms: _6  and  _7
REMARK    5  A    between atoms: _7  and  _8
REMARK    6  A    between atoms: _11  and  _12
REMARK    7  A    between atoms: _17  and  _19
REMARK    8  A    between atoms: _19  and  _20
REMARK    9  A    between atoms: _19  and  _22
REMARK   10  A    between atoms: _25  and  _27
REMARK   11  A    between atoms: _27  and  _28
REMARK   12  A    between atoms: _30  and  _32
REMARK   13  A    between atoms: _32  and  _33
REMARK   14  A    between atoms: _32  and  _35
REMARK   15  A    between atoms: _35  and  _36
REMARK   16  A    between atoms: _39  and  _41
REMARK   17  A    between atoms: _41  and  _42
REMARK   18  A    between atoms: _45  and  _47
REMARK   19  A    between atoms: _47  and  _48
REMARK   20  A    between atoms: _47  and  _50
REMARK   21  A    between atoms: _50  and  _51
REMARK   22  A    between atoms: _51  and  _52
REMARK   23  A    between atoms: _52  and  _53
REMARK   24  A    between atoms: _53  and  _54
REMARK   25  A    between atoms: _58  and  _60
REMARK   26  A    between atoms: _60  and  _61
REMARK   27  A    between atoms: _60  and  _63
REMARK   28  A    between atoms: _63  and  _64
REMARK   29  A    between atoms: _67  and  _69
REMARK   30  A    between atoms: _69  and  _70
REMARK   31  A    between atoms: _72  and  _74
REMARK   32  A    between atoms: _74  and  _75
REMARK   33  A    between atoms: _74  and  _77
REMARK   34  A    between atoms: _77  and  _78
REMARK   35  A    between atoms: _83  and  _85
REMARK   36  A    between atoms: _85  and  _86
REMARK   37  A    between atoms: _85  and  _88
REMARK   38  A    between atoms: _88  and  _89
REMARK   39  A    between atoms: _92  and  _94
REMARK   40  A    between atoms: _94  and  _95
REMARK   41  A    between atoms: _94  and  _97
REMARK   42  A    between atoms: _97  and  _98
REMARK   43  A    between atoms: _103  and  _104
REMARK   44  A    between atoms: _106  and  _108
REMARK   45  A    between atoms: _108  and  _109
REMARK   46  A    between atoms: _108  and  _111
REMARK   47  A    between atoms: _111  and  _112
REMARK   48  A    between atoms: _117  and  _119
REMARK   49  A    between atoms: _119  and  _120
REMARK   50  A    between atoms: _119  and  _122
REMARK   51  A    between atoms: _122  and  _123
REMARK   52  A    between atoms: _126  and  _128
REMARK   53  A    between atoms: _128  and  _129
REMARK   54  A    between atoms: _128  and  _131
REMARK   55  A    between atoms: _131  and  _132
REMARK   56  A    between atoms: _135  and  _137
REMARK   57  A    between atoms: _137  and  _138
REMARK   58  A    between atoms: _137  and  _140
REMARK   59  A    between atoms: _140  and  _141
REMARK   60  A    between atoms: _144  and  _146
REMARK   61  A    between atoms: _146  and  _147
REMARK   62  A    between atoms: _146  and  _149
REMARK   63  A    between atoms: _149  and  _150
REMARK   64  A    between atoms: _153  and  _155
REMARK   65  A    between atoms: _155  and  _156
REMARK   66  A    between atoms: _155  and  _158
REMARK   67  A    between atoms: _158  and  _159
REMARK   68  A    between atoms: _161  and  _163
REMARK   69  A    between atoms: _163  and  _164
REMARK   70  A    between atoms: _166  and  _168
REMARK   71  A    between atoms: _168  and  _169
REMARK   72  A    between atoms: _171  and  _173
REMARK   73  A    between atoms: _173  and  _174
REMARK   74  A    between atoms: _173  and  _176
REMARK   75  A    between atoms: _176  and  _177
REMARK   76  A    between atoms: _182  and  _183
REMARK   77  A    between atoms: _185  and  _187
REMARK   78  A    between atoms: _187  and  _188
REMARK   79  A    between atoms: _187  and  _190
REMARK   80  A    between atoms: _190  and  _191
REMARK   81  A    between atoms: _191  and  _192
REMARK   82  A    between atoms: _197  and  _199
REMARK   83  A    between atoms: _199  and  _200
REMARK   84  A    between atoms: _203  and  _205
REMARK   85  A    between atoms: _205  and  _206
REMARK   86  A    between atoms: _205  and  _208
REMARK   87  A    between atoms: _208  and  _209
REMARK   88  A    between atoms: _209  and  _210
REMARK   89  A    between atoms: _212  and  _214
REMARK   90  A    between atoms: _214  and  _215
REMARK   91  A    between atoms: _218  and  _220
REMARK   92  A    between atoms: _220  and  _221
REMARK   93  A    between atoms: _220  and  _223
REMARK   94  A    between atoms: _223  and  _224
REMARK   95  A    between atoms: _230  and  _232
REMARK   96  A    between atoms: _232  and  _233
REMARK   97  A    between atoms: _232  and  _235
REMARK   98  A    between atoms: _235  and  _236
REMARK   99  A    between atoms: _239  and  _241
REMARK  100  A    between atoms: _241  and  _242
REMARK  101  A    between atoms: _241  and  _244
REMARK  102  A    between atoms: _244  and  _245
REMARK  103  A    between atoms: _245  and  _246
REMARK  104  A    between atoms: _249  and  _251
REMARK  105  A    between atoms: _251  and  _252
REMARK  106  A    between atoms: _251  and  _254
REMARK  107  A    between atoms: _256  and  _258
REMARK  108  A    between atoms: _258  and  _259
REMARK  109  A    between atoms: _258  and  _261
REMARK  110  A    between atoms: _261  and  _262
REMARK  111  A    between atoms: _265  and  _267
REMARK  112  A    between atoms: _267  and  _268
REMARK  113  A    between atoms: _267  and  _270
REMARK  114  A    between atoms: _270  and  _271
REMARK  115  A    between atoms: _273  and  _275
REMARK  116  A    between atoms: _275  and  _276
REMARK  117  A    between atoms: _275  and  _278
REMARK  118  A    between atoms: _278  and  _279
REMARK  119  A    between atoms: _282  and  _284
REMARK  120  A    between atoms: _284  and  _285
REMARK  121  A    between atoms: _284  and  _287
REMARK  122  A    between atoms: _287  and  _288
REMARK  123  A    between atoms: _288  and  _289
REMARK  124  A    between atoms: _294  and  _296
REMARK  125  A    between atoms: _296  and  _297
REMARK  126  A    between atoms: _296  and  _299
REMARK  127  A    between atoms: _299  and  _300
REMARK  128  A    between atoms: _300  and  _301
REMARK  129  A    between atoms: _306  and  _308
REMARK  130  A    between atoms: _308  and  _309
REMARK  131  A    between atoms: _311  and  _313
REMARK  132  A    between atoms: _313  and  _314
REMARK  133  A    between atoms: _313  and  _316
REMARK  134  A    between atoms: _316  and  _317
REMARK  135  A    between atoms: _319  and  _321
REMARK  136  A    between atoms: _321  and  _322
REMARK  137  A    between atoms: _321  and  _324
REMARK  138  A    between atoms: _324  and  _325
REMARK  139  A    between atoms: _325  and  _326
REMARK  140  A    between atoms: _326  and  _327
REMARK  141  A    between atoms: _336  and  _338
REMARK  142  A    between atoms: _338  and  _339
REMARK  143  A    between atoms: _342  and  _344
REMARK  144  A    between atoms: _344  and  _345
REMARK  145  A    between atoms: _344  and  _347
REMARK  146  A    between atoms: _350  and  _352
REMARK  147  A    between atoms: _352  and  _353
REMARK  148  A    between atoms: _355  and  _357
REMARK  149  A    between atoms: _357  and  _358
REMARK  150  A    between atoms: _360  and  _362
REMARK  151  A    between atoms: _362  and  _363
REMARK  152  A    between atoms: _362  and  _365
REMARK  153  A    between atoms: _365  and  _366
REMARK  154  A    between atoms: _369  and  _371
REMARK  155  A    between atoms: _371  and  _372
REMARK  156  A    between atoms: _375  and  _377
REMARK  157  A    between atoms: _377  and  _378
REMARK  158  A    between atoms: _377  and  _380
REMARK  159  A    between atoms: _383  and  _385
REMARK  160  A    between atoms: _385  and  _386
REMARK  161  A    between atoms: _388  and  _390
REMARK  162  A    between atoms: _390  and  _391
REMARK  163  A    between atoms: _390  and  _393
REMARK  164  A    between atoms: _393  and  _394
REMARK  165  A    between atoms: _394  and  _395
REMARK  166  A    between atoms: _398  and  _400
REMARK  167  A    between atoms: _400  and  _401
REMARK  168  A    between atoms: _400  and  _403
REMARK  169  A    between atoms: _403  and  _404
REMARK  170  A    between atoms: _404  and  _405
REMARK  171  A    between atoms: _407  and  _409
REMARK  172  A    between atoms: _409  and  _410
REMARK  173  A    between atoms: _409  and  _412
REMARK  174  A    between atoms: _412  and  _413
REMARK  175  A    between atoms: _418  and  _419
REMARK  176  A    between atoms: _421  and  _423
REMARK  177  A    between atoms: _423  and  _424
REMARK  178  A    between atoms: _423  and  _426
REMARK  179  A    between atoms: _426  and  _427
REMARK  180  A    between atoms: _430  and  _432
REMARK  181  A    between atoms: _432  and  _433
REMARK  182  A    between atoms: _432  and  _435
REMARK  183  A    between atoms: _435  and  _436
REMARK  184  A    between atoms: _436  and  _437
REMARK  185  A    between atoms: _439  and  _441
REMARK  186  A    between atoms: _441  and  _442
REMARK  187  A    between atoms: _444  and  _446
REMARK  188  A    between atoms: _446  and  _447
REMARK  189  A    between atoms: _446  and  _449
REMARK  190  A    between atoms: _452  and  _454
REMARK  191  A    between atoms: _454  and  _455
REMARK  192  A    between atoms: _457  and  _459
REMARK  193  A    between atoms: _459  and  _460
REMARK  194  A    between atoms: _459  and  _462
REMARK  195  A    between atoms: _462  and  _463
REMARK  196  A    between atoms: _469  and  _471
REMARK  197  A    between atoms: _471  and  _472
REMARK  198  A    between atoms: _471  and  _474
REMARK  199  A    between atoms: _474  and  _475
REMARK  200  A    between atoms: _478  and  _480
REMARK  201  A    between atoms: _480  and  _481
REMARK  202  A    between atoms: _480  and  _483
REMARK  203  A    between atoms: _485  and  _487
REMARK  204  A    between atoms: _487  and  _488
REMARK  205  A    between atoms: _487  and  _490
REMARK  206  A    between atoms: _493  and  _495
REMARK  207  A    between atoms: _495  and  _496
REMARK  208  A    between atoms: _495  and  _498
REMARK  209  A    between atoms: _498  and  _499
REMARK  210  A    between atoms: _502  and  _504
REMARK  211  A    between atoms: _504  and  _505
REMARK  212  A    between atoms: _504  and  _507
REMARK  213  A    between atoms: _507  and  _508
REMARK  214  A    between atoms: _508  and  _509
REMARK  215  A    between atoms: _509  and  _510
REMARK                            x       y       z     vdW  Elec       q    Type
REMARK                         _______ _______ _______ _____ _____    ______ ____
ROOT
ATOM      1  C   GLN A   2      23.345  14.921  27.884  0.00  0.00    +0.241 C 
ATOM      2  N   GLN A   3      23.555  16.041  28.559  0.00  0.00    -0.297 N 
ATOM      3  H   GLN A   3      23.401  15.942  29.583  0.00  0.00    +0.150 HD
ATOM      4  O   GLN A   2      23.162  15.084  26.687  0.00  0.00    -0.273 OA
ENDROOT
BRANCH   2   5
ATOM      5  CA  GLN A   3      23.950  17.356  28.168  0.00  0.00    +0.149 C 
BRANCH   5   6
ATOM      6  C   GLN A   3      25.391  17.721  28.469  0.00  0.00    +0.241 C 
ATOM      7  O   GLN A   3      26.235  16.892  28.795  0.00  0.00    -0.273 OA
ATOM      8  N   GLY A   4      25.721  19.004  28.330  0.00  0.00    -0.295 N 
ATOM      9  H   GLY A   4      24.973  19.677  28.066  0.00  0.00    +0.150 HD
BRANCH   8  10
ATOM     10  CA  GLY A   4      27.051  19.512  28.524  0.00  0.00    +0.176 C 
BRANCH  10  11
ATOM     11  C   GLY A   4      27.736  20.164  27.343  0.00  0.00    +0.243 C 
ATOM     12  O   GLY A   4      28.956  20.435  27.428  0.00  0.00    -0.273 OA
ATOM     13  N   SER A   5      26.986  20.422  26.299  0.00  0.00    -0.296 N 
ATOM     14  H   SER A   5      25.982  20.154  26.334  0.00  0.00    +0.150 HD
BRANCH  13  15
ATOM     15  CA  SER A   5      27.489  21.064  25.094  0.00  0.00    +0.166 C 
BRANCH  15  16
ATOM     16  C   SER A   5      28.709  20.309  24.590  0.00  0.00    +0.229 C 
ATOM     17  O   SER A   5      28.697  19.062  24.484  0.00  0.00    -0.286 OA
ENDBRANCH  15  16
BRANCH  15  18
ATOM     18  CB  SER A   5      27.792  22.524  25.399  0.00  0.00    +0.165 C 
BRANCH  18  19
ATOM     19  OG  SER A   5      28.153  23.284  24.273  0.00  0.00    -0.380 OA
ATOM     20  H   SER A   5      27.412  23.271  23.616  0.00  0.00    +0.211 HD
ENDBRANCH  18  19
ENDBRANCH  15  18
ENDBRANCH  13  15
ENDBRANCH  10  11
ENDBRANCH   8  10
ENDBRANCH   5   6
BRANCH   5  21
ATOM     21  CB  GLN A   3      22.896  18.259  28.842  0.00  0.00    +0.039 C 
BRANCH  21  22
ATOM     22  CG  GLN A   3      21.495  17.966  28.308  0.00  0.00    +0.087 C 
BRANCH  22  23
ATOM     23  CD  GLN A   3      21.216  18.257  26.856  0.00  0.00    +0.219 C 
ATOM     24  NE2 GLN A   3      20.117  17.782  26.286  0.00  0.00    -0.329 N 
ATOM     25 HE21 GLN A   3      19.464  17.185  26.833  0.00  0.00    +0.145 HD
ATOM     26 HE22 GLN A   3      19.908  18.006  25.292  0.00  0.00    +0.145 HD
ATOM     27  OE1 GLN A   3      21.972  18.967  26.170  0.00  0.00    -0.275 OA
ENDBRANCH  22  23
ENDBRANCH  21  22
ENDBRANCH   5  21
ENDBRANCH   2   5
BRANCH   1  28
ATOM     28  CA  GLN A   2      23.308  13.571  28.577  0.00  0.00    +0.149 C 
BRANCH  28  31
ATOM     29  C   ILE A   1      20.907  13.244  28.758  0.00  0.00    +0.238 C 
ATOM     30  O   ILE A   1      20.836  14.121  29.632  0.00  0.00    -0.274 OA
ATOM     31  N   GLN A   2      22.063  12.911  28.214  0.00  0.00    -0.297 N 
ATOM     32  H   GLN A   2      22.084  12.152  27.503  0.00  0.00    +0.150 HD
BRANCH  29  33
ATOM     33  CA  ILE A   1      19.695  12.515  28.238  0.00  0.00    +0.145 C 
BRANCH  33  34
ATOM     34  CB  ILE A   1      18.758  13.519  27.527  0.00  0.00    +0.025 C 
ATOM     35  CG2 ILE A   1      19.484  14.210  26.388  0.00  0.00    +0.002 C 
BRANCH  34  36
ATOM     36  CG1 ILE A   1      17.452  12.871  27.054  0.00  0.00    +0.002 C 
ATOM     37  CD1 ILE A   1      16.319  13.774  26.590  0.00  0.00    +0.000 C 
ENDBRANCH  34  36
ENDBRANCH  33  34
BRANCH  33  38
ATOM     38  N   ILE A   1      18.974  11.811  29.283  0.00  0.00    -0.238 NA
ATOM     39  H   ILE A   1      18.585  12.346  30.086  0.00  0.00    +0.142 HD
ENDBRANCH  33  38
ENDBRANCH  29  33
ENDBRANCH  28  31
BRANCH  28  40
ATOM     40  CB  GLN A   2      24.490  12.716  28.113  0.00  0.00    +0.039 C 
BRANCH  40  41
ATOM     41  CG  GLN A   2      25.837  13.245  28.530  0.00  0.00    +0.087 C 
BRANCH  41  42
ATOM     42  CD  GLN A   2      26.969  12.679  27.675  0.00  0.00    +0.219 C 
ATOM     43  NE2 GLN A   2      28.049  12.263  28.332  0.00  0.00    -0.329 N 
ATOM     44 HE21 GLN A   2      28.086  12.334  29.369  0.00  0.00    +0.145 HD
ATOM     45 HE22 GLN A   2      28.856  11.867  27.809  0.00  0.00    +0.145 HD
ATOM     46  OE1 GLN A   2      26.819  12.642  26.453  0.00  0.00    -0.275 OA
ENDBRANCH  41  42
ENDBRANCH  40  41
ENDBRANCH  28  40
ENDBRANCH   1  28
TORSDOF 20
REMARK  Name = ../refined-set-2016/3ge7/3ge7_pocket.pdb
REMARK  215 active torsions:
REMARK  status: ('A' for Active; 'I' for Inactive)
REMARK    1  A    between atoms: _1  and  _3
REMARK    2  A    between atoms: _3  and  _4
REMARK    3  A    between atoms: _3  and  _6
REMARK    4  A    between atoms: _6  and  _7
REMARK    5  A    between atoms: _7  and  _8
REMARK    6  A    between atoms: _11  and  _12
REMARK    7  A    between atoms: _17  and  _19
REMARK    8  A    between atoms: _19  and  _20
REMARK    9  A    between atoms: _19  and  _22
REMARK   10  A    between atoms: _25  and  _27
REMARK   11  A    between atoms: _27  and  _28
REMARK   12  A    between atoms: _30  and  _32
REMARK   13  A    between atoms: _32  and  _33
REMARK   14  A    between atoms: _32  and  _35
REMARK   15  A    between atoms: _35  and  _36
REMARK   16  A    between atoms: _39  and  _41
REMARK   17  A    between atoms: _41  and  _42
REMARK   18  A    between atoms: _45  and  _47
REMARK   19  A    between atoms: _47  and  _48
REMARK   20  A    between atoms: _47  and  _50
REMARK   21  A    between atoms: _50  and  _51
REMARK   22  A    between atoms: _51  and  _52
REMARK   23  A    between atoms: _52  and  _53
REMARK   24  A    between atoms: _53  and  _54
REMARK   25  A    between atoms: _58  and  _60
REMARK   26  A    between atoms: _60  and  _61
REMARK   27  A    between atoms: _60  and  _63
REMARK   28  A    between atoms: _63  and  _64
REMARK   29  A    between atoms: _67  and  _69
REMARK   30  A    between atoms: _69  and  _70
REMARK   31  A    between atoms: _72  and  _74
REMARK   32  A    between atoms: _74  and  _75
REMARK   33  A    between atoms: _74  and  _77
REMARK   34  A    between atoms: _77  and  _78
REMARK   35  A    between atoms: _83  and  _85
REMARK   36  A    between atoms: _85  and  _86
REMARK   37  A    between atoms: _85  and  _88
REMARK   38  A    between atoms: _88  and  _89
REMARK   39  A    between atoms: _92  and  _94
REMARK   40  A    between atoms: _94  and  _95
REMARK   41  A    between atoms: _94  and  _97
REMARK   42  A    between atoms: _97  and  _98
REMARK   43  A    between atoms: _103  and  _104
REMARK   44  A    between atoms: _106  and  _108
REMARK   45  A    between atoms: _108  and  _109
REMARK   46  A    between atoms: _108  and  _111
REMARK   47  A    between atoms: _111  and  _112
REMARK   48  A    between atoms: _117  and  _119
REMARK   49  A    between atoms: _119  and  _120
REMARK   50  A    between atoms: _119  and  _122
REMARK   51  A    between atoms: _122  and  _123
REMARK   52  A    between atoms: _126  and  _128
REMARK   53  A    between atoms: _128  and  _129
REMARK   54  A    between atoms: _128  and  _131
REMARK   55  A    between atoms: _131  and  _132
REMARK   56  A    between atoms: _135  and  _137
REMARK   57  A    between atoms: _137  and  _138
REMARK   58  A    between atoms: _137  and  _140
REMARK   59  A    between atoms: _140  and  _141
REMARK   60  A    between atoms: _144  and  _146
REMARK   61  A    between atoms: _146  and  _147
REMARK   62  A    between atoms: _146  and  _149
REMARK   63  A    between atoms: _149  and  _150
REMARK   64  A    between atoms: _153  and  _155
REMARK   65  A    between atoms: _155  and  _156
REMARK   66  A    between atoms: _155  and  _158
REMARK   67  A    between atoms: _158  and  _159
REMARK   68  A    between atoms: _161  and  _163
REMARK   69  A    between atoms: _163  and  _164
REMARK   70  A    between atoms: _166  and  _168
REMARK   71  A    between atoms: _168  and  _169
REMARK   72  A    between atoms: _171  and  _173
REMARK   73  A    between atoms: _173  and  _174
REMARK   74  A    between atoms: _173  and  _176
REMARK   75  A    between atoms: _176  and  _177
REMARK   76  A    between atoms: _182  and  _183
REMARK   77  A    between atoms: _185  and  _187
REMARK   78  A    between atoms: _187  and  _188
REMARK   79  A    between atoms: _187  and  _190
REMARK   80  A    between atoms: _190  and  _191
REMARK   81  A    between atoms: _191  and  _192
REMARK   82  A    between atoms: _197  and  _199
REMARK   83  A    between atoms: _199  and  _200
REMARK   84  A    between atoms: _203  and  _205
REMARK   85  A    between atoms: _205  and  _206
REMARK   86  A    between atoms: _205  and  _208
REMARK   87  A    between atoms: _208  and  _209
REMARK   88  A    between atoms: _209  and  _210
REMARK   89  A    between atoms: _212  and  _214
REMARK   90  A    between atoms: _214  and  _215
REMARK   91  A    between atoms: _218  and  _220
REMARK   92  A    between atoms: _220  and  _221
REMARK   93  A    between atoms: _220  and  _223
REMARK   94  A    between atoms: _223  and  _224
REMARK   95  A    between atoms: _230  and  _232
REMARK   96  A    between atoms: _232  and  _233
REMARK   97  A    between atoms: _232  and  _235
REMARK   98  A    between atoms: _235  and  _236
REMARK   99  A    between atoms: _239  and  _241
REMARK  100  A    between atoms: _241  and  _242
REMARK  101  A    between atoms: _241  and  _244
REMARK  102  A    between atoms: _244  and  _245
REMARK  103  A    between atoms: _245  and  _246
REMARK  104  A    between atoms: _249  and  _251
REMARK  105  A    between atoms: _251  and  _252
REMARK  106  A    between atoms: _251  and  _254
REMARK  107  A    between atoms: _256  and  _258
REMARK  108  A    between atoms: _258  and  _259
REMARK  109  A    between atoms: _258  and  _261
REMARK  110  A    between atoms: _261  and  _262
REMARK  111  A    between atoms: _265  and  _267
REMARK  112  A    between atoms: _267  and  _268
REMARK  113  A    between atoms: _267  and  _270
REMARK  114  A    between atoms: _270  and  _271
REMARK  115  A    between atoms: _273  and  _275
REMARK  116  A    between atoms: _275  and  _276
REMARK  117  A    between atoms: _275  and  _278
REMARK  118  A    between atoms: _278  and  _279
REMARK  119  A    between atoms: _282  and  _284
REMARK  120  A    between atoms: _284  and  _285
REMARK  121  A    between atoms: _284  and  _287
REMARK  122  A    between atoms: _287  and  _288
REMARK  123  A    between atoms: _288  and  _289
REMARK  124  A    between atoms: _294  and  _296
REMARK  125  A    between atoms: _296  and  _297
REMARK  126  A    between atoms: _296  and  _299
REMARK  127  A    between atoms: _299  and  _300
REMARK  128  A    between atoms: _300  and  _301
REMARK  129  A    between atoms: _306  and  _308
REMARK  130  A    between atoms: _308  and  _309
REMARK  131  A    between atoms: _311  and  _313
REMARK  132  A    between atoms: _313  and  _314
REMARK  133  A    between atoms: _313  and  _316
REMARK  134  A    between atoms: _316  and  _317
REMARK  135  A    between atoms: _319  and  _321
REMARK  136  A    between atoms: _321  and  _322
REMARK  137  A    between atoms: _321  and  _324
REMARK  138  A    between atoms: _324  and  _325
REMARK  139  A    between atoms: _325  and  _326
REMARK  140  A    between atoms: _326  and  _327
REMARK  141  A    between atoms: _336  and  _338
REMARK  142  A    between atoms: _338  and  _339
REMARK  143  A    between atoms: _342  and  _344
REMARK  144  A    between atoms: _344  and  _345
REMARK  145  A    between atoms: _344  and  _347
REMARK  146  A    between atoms: _350  and  _352
REMARK  147  A    between atoms: _352  and  _353
REMARK  148  A    between atoms: _355  and  _357
REMARK  149  A    between atoms: _357  and  _358
REMARK  150  A    between atoms: _360  and  _362
REMARK  151  A    between atoms: _362  and  _363
REMARK  152  A    between atoms: _362  and  _365
REMARK  153  A    between atoms: _365  and  _366
REMARK  154  A    between atoms: _369  and  _371
REMARK  155  A    between atoms: _371  and  _372
REMARK  156  A    between atoms: _375  and  _377
REMARK  157  A    between atoms: _377  and  _378
REMARK  158  A    between atoms: _377  and  _380
REMARK  159  A    between atoms: _383  and  _385
REMARK  160  A    between atoms: _385  and  _386
REMARK  161  A    between atoms: _388  and  _390
REMARK  162  A    between atoms: _390  and  _391
REMARK  163  A    between atoms: _390  and  _393
REMARK  164  A    between atoms: _393  and  _394
REMARK  165  A    between atoms: _394  and  _395
REMARK  166  A    between atoms: _398  and  _400
REMARK  167  A    between atoms: _400  and  _401
REMARK  168  A    between atoms: _400  and  _403
REMARK  169  A    between atoms: _403  and  _404
REMARK  170  A    between atoms: _404  and  _405
REMARK  171  A    between atoms: _407  and  _409
REMARK  172  A    between atoms: _409  and  _410
REMARK  173  A    between atoms: _409  and  _412
REMARK  174  A    between atoms: _412  and  _413
REMARK  175  A    between atoms: _418  and  _419
REMARK  176  A    between atoms: _421  and  _423
REMARK  177  A    between atoms: _423  and  _424
REMARK  178  A    between atoms: _423  and  _426
REMARK  179  A    between atoms: _426  and  _427
REMARK  180  A    between atoms: _430  and  _432
REMARK  181  A    between atoms: _432  and  _433
REMARK  182  A    between atoms: _432  and  _435
REMARK  183  A    between atoms: _435  and  _436
REMARK  184  A    between atoms: _436  and  _437
REMARK  185  A    between atoms: _439  and  _441
REMARK  186  A    between atoms: _441  and  _442
REMARK  187  A    between atoms: _444  and  _446
REMARK  188  A    between atoms: _446  and  _447
REMARK  189  A    between atoms: _446  and  _449
REMARK  190  A    between atoms: _452  and  _454
REMARK  191  A    between atoms: _454  and  _455
REMARK  192  A    between atoms: _457  and  _459
REMARK  193  A    between atoms: _459  and  _460
REMARK  194  A    between atoms: _459  and  _462
REMARK  195  A    between atoms: _462  and  _463
REMARK  196  A    between atoms: _469  and  _471
REMARK  197  A    between atoms: _471  and  _472
REMARK  198  A    between atoms: _471  and  _474
REMARK  199  A    between atoms: _474  and  _475
REMARK  200  A    between atoms: _478  and  _480
REMARK  201  A    between atoms: _480  and  _481
REMARK  202  A    between atoms: _480  and  _483
REMARK  203  A    between atoms: _485  and  _487
REMARK  204  A    between atoms: _487  and  _488
REMARK  205  A    between atoms: _487  and  _490
REMARK  206  A    between atoms: _493  and  _495
REMARK  207  A    between atoms: _495  and  _496
REMARK  208  A    between atoms: _495  and  _498
REMARK  209  A    between atoms: _498  and  _499
REMARK  210  A    between atoms: _502  and  _504
REMARK  211  A    between atoms: _504  and  _505
REMARK  212  A    between atoms: _504  and  _507
REMARK  213  A    between atoms: _507  and  _508
REMARK  214  A    between atoms: _508  and  _509
REMARK  215  A    between atoms: _509  and  _510
REMARK                            x       y       z     vdW  Elec       q    Type
REMARK                         _______ _______ _______ _____ _____    ______ ____
ROOT
ATOM      1  NE  ARG A   1      27.845  16.558  25.706  0.00  0.00    -0.265 N 
ATOM      2  HE  ARG A   1      28.408  17.403  25.480  0.00  0.00    +0.259 HD
ATOM      3  CZ  ARG A   1      26.687  16.482  25.095  0.00  0.00    +0.342 C 
ATOM      4  NH2 ARG A   1      25.909  15.418  25.306  0.00  0.00    -0.292 N 
ATOM      5 HH21 ARG A   1      26.224  14.663  25.948  0.00  0.00    +0.255 HD
ATOM      6 HH22 ARG A   1      24.988  15.344  24.828  0.00  0.00    +0.255 HD
ATOM      7  NH1 ARG A   1      26.292  17.437  24.289  0.00  0.00    -0.292 N 
ATOM      8 HH11 ARG A   1      26.899  18.266  24.128  0.00  0.00    +0.255 HD
ATOM      9 HH12 ARG A   1      25.372  17.366  23.810  0.00  0.00    +0.255 HD
ENDROOT
BRANCH   1  10
ATOM     10  CD  ARG A   1      28.454  15.653  26.640  0.00  0.00    +0.174 C 
BRANCH  10  11
ATOM     11  CG  ARG A   1      29.767  16.249  27.129  0.00  0.00    +0.045 C 
BRANCH  11  12
ATOM     12  CB  ARG A   1      30.270  15.416  28.265  0.00  0.00    +0.029 C 
BRANCH  12  13
ATOM     13  CA  ARG A   1      29.624  15.658  29.631  0.00  0.00    +0.133 C 
BRANCH  13  14
ATOM     14  N   ARG A   1      30.127  16.976  30.113  0.00  0.00    -0.239 NA
ATOM     15  H   ARG A   1      30.834  17.505  29.564  0.00  0.00    +0.142 HD
ENDBRANCH  13  14
BRANCH  13  16
ATOM     16  C   ARG A   1      29.881  14.569  30.637  0.00  0.00    +0.224 C 
ATOM     17  O   ARG A   1      29.025  13.679  30.877  0.00  0.00    -0.287 OA
ENDBRANCH  13  16
ENDBRANCH  12  13
ENDBRANCH  11  12
ENDBRANCH  10  11
ENDBRANCH   1  10
TORSDOF 6
REMARK  Name = ../refined-set-2016/3ge7/3ge7_pocket.pdb
REMARK  215 active torsions:
REMARK  status: ('A' for Active; 'I' for Inactive)
REMARK    1  A    between atoms: _1  and  _3
REMARK    2  A    between atoms: _3  and  _4
REMARK    3  A    between atoms: _3  and  _6
REMARK    4  A    between atoms: _6  and  _7
REMARK    5  A    between atoms: _7  and  _8
REMARK    6  A    between atoms: _11  and  _12
REMARK    7  A    between atoms: _17  and  _19
REMARK    8  A    between atoms: _19  and  _20
REMARK    9  A    between atoms: _19  and  _22
REMARK   10  A    between atoms: _25  and  _27
REMARK   11  A    between atoms: _27  and  _28
REMARK   12  A    between atoms: _30  and  _32
REMARK   13  A    between atoms: _32  and  _33
REMARK   14  A    between atoms: _32  and  _35
REMARK   15  A    between atoms: _35  and  _36
REMARK   16  A    between atoms: _39  and  _41
REMARK   17  A    between atoms: _41  and  _42
REMARK   18  A    between atoms: _45  and  _47
REMARK   19  A    between atoms: _47  and  _48
REMARK   20  A    between atoms: _47  and  _50
REMARK   21  A    between atoms: _50  and  _51
REMARK   22  A    between atoms: _51  and  _52
REMARK   23  A    between atoms: _52  and  _53
REMARK   24  A    between atoms: _53  and  _54
REMARK   25  A    between atoms: _58  and  _60
REMARK   26  A    between atoms: _60  and  _61
REMARK   27  A    between atoms: _60  and  _63
REMARK   28  A    between atoms: _63  and  _64
REMARK   29  A    between atoms: _67  and  _69
REMARK   30  A    between atoms: _69  and  _70
REMARK   31  A    between atoms: _72  and  _74
REMARK   32  A    between atoms: _74  and  _75
REMARK   33  A    between atoms: _74  and  _77
REMARK   34  A    between atoms: _77  and  _78
REMARK   35  A    between atoms: _83  and  _85
REMARK   36  A    between atoms: _85  and  _86
REMARK   37  A    between atoms: _85  and  _88
REMARK   38  A    between atoms: _88  and  _89
REMARK   39  A    between atoms: _92  and  _94
REMARK   40  A    between atoms: _94  and  _95
REMARK   41  A    between atoms: _94  and  _97
REMARK   42  A    between atoms: _97  and  _98
REMARK   43  A    between atoms: _103  and  _104
REMARK   44  A    between atoms: _106  and  _108
REMARK   45  A    between atoms: _108  and  _109
REMARK   46  A    between atoms: _108  and  _111
REMARK   47  A    between atoms: _111  and  _112
REMARK   48  A    between atoms: _117  and  _119
REMARK   49  A    between atoms: _119  and  _120
REMARK   50  A    between atoms: _119  and  _122
REMARK   51  A    between atoms: _122  and  _123
REMARK   52  A    between atoms: _126  and  _128
REMARK   53  A    between atoms: _128  and  _129
REMARK   54  A    between atoms: _128  and  _131
REMARK   55  A    between atoms: _131  and  _132
REMARK   56  A    between atoms: _135  and  _137
REMARK   57  A    between atoms: _137  and  _138
REMARK   58  A    between atoms: _137  and  _140
REMARK   59  A    between atoms: _140  and  _141
REMARK   60  A    between atoms: _144  and  _146
REMARK   61  A    between atoms: _146  and  _147
REMARK   62  A    between atoms: _146  and  _149
REMARK   63  A    between atoms: _149  and  _150
REMARK   64  A    between atoms: _153  and  _155
REMARK   65  A    between atoms: _155  and  _156
REMARK   66  A    between atoms: _155  and  _158
REMARK   67  A    between atoms: _158  and  _159
REMARK   68  A    between atoms: _161  and  _163
REMARK   69  A    between atoms: _163  and  _164
REMARK   70  A    between atoms: _166  and  _168
REMARK   71  A    between atoms: _168  and  _169
REMARK   72  A    between atoms: _171  and  _173
REMARK   73  A    between atoms: _173  and  _174
REMARK   74  A    between atoms: _173  and  _176
REMARK   75  A    between atoms: _176  and  _177
REMARK   76  A    between atoms: _182  and  _183
REMARK   77  A    between atoms: _185  and  _187
REMARK   78  A    between atoms: _187  and  _188
REMARK   79  A    between atoms: _187  and  _190
REMARK   80  A    between atoms: _190  and  _191
REMARK   81  A    between atoms: _191  and  _192
REMARK   82  A    between atoms: _197  and  _199
REMARK   83  A    between atoms: _199  and  _200
REMARK   84  A    between atoms: _203  and  _205
REMARK   85  A    between atoms: _205  and  _206
REMARK   86  A    between atoms: _205  and  _208
REMARK   87  A    between atoms: _208  and  _209
REMARK   88  A    between atoms: _209  and  _210
REMARK   89  A    between atoms: _212  and  _214
REMARK   90  A    between atoms: _214  and  _215
REMARK   91  A    between atoms: _218  and  _220
REMARK   92  A    between atoms: _220  and  _221
REMARK   93  A    between atoms: _220  and  _223
REMARK   94  A    between atoms: _223  and  _224
REMARK   95  A    between atoms: _230  and  _232
REMARK   96  A    between atoms: _232  and  _233
REMARK   97  A    between atoms: _232  and  _235
REMARK   98  A    between atoms: _235  and  _236
REMARK   99  A    between atoms: _239  and  _241
REMARK  100  A    between atoms: _241  and  _242
REMARK  101  A    between atoms: _241  and  _244
REMARK  102  A    between atoms: _244  and  _245
REMARK  103  A    between atoms: _245  and  _246
REMARK  104  A    between atoms: _249  and  _251
REMARK  105  A    between atoms: _251  and  _252
REMARK  106  A    between atoms: _251  and  _254
REMARK  107  A    between atoms: _256  and  _258
REMARK  108  A    between atoms: _258  and  _259
REMARK  109  A    between atoms: _258  and  _261
REMARK  110  A    between atoms: _261  and  _262
REMARK  111  A    between atoms: _265  and  _267
REMARK  112  A    between atoms: _267  and  _268
REMARK  113  A    between atoms: _267  and  _270
REMARK  114  A    between atoms: _270  and  _271
REMARK  115  A    between atoms: _273  and  _275
REMARK  116  A    between atoms: _275  and  _276
REMARK  117  A    between atoms: _275  and  _278
REMARK  118  A    between atoms: _278  and  _279
REMARK  119  A    between atoms: _282  and  _284
REMARK  120  A    between atoms: _284  and  _285
REMARK  121  A    between atoms: _284  and  _287
REMARK  122  A    between atoms: _287  and  _288
REMARK  123  A    between atoms: _288  and  _289
REMARK  124  A    between atoms: _294  and  _296
REMARK  125  A    between atoms: _296  and  _297
REMARK  126  A    between atoms: _296  and  _299
REMARK  127  A    between atoms: _299  and  _300
REMARK  128  A    between atoms: _300  and  _301
REMARK  129  A    between atoms: _306  and  _308
REMARK  130  A    between atoms: _308  and  _309
REMARK  131  A    between atoms: _311  and  _313
REMARK  132  A    between atoms: _313  and  _314
REMARK  133  A    between atoms: _313  and  _316
REMARK  134  A    between atoms: _316  and  _317
REMARK  135  A    between atoms: _319  and  _321
REMARK  136  A    between atoms: _321  and  _322
REMARK  137  A    between atoms: _321  and  _324
REMARK  138  A    between atoms: _324  and  _325
REMARK  139  A    between atoms: _325  and  _326
REMARK  140  A    between atoms: _326  and  _327
REMARK  141  A    between atoms: _336  and  _338
REMARK  142  A    between atoms: _338  and  _339
REMARK  143  A    between atoms: _342  and  _344
REMARK  144  A    between atoms: _344  and  _345
REMARK  145  A    between atoms: _344  and  _347
REMARK  146  A    between atoms: _350  and  _352
REMARK  147  A    between atoms: _352  and  _353
REMARK  148  A    between atoms: _355  and  _357
REMARK  149  A    between atoms: _357  and  _358
REMARK  150  A    between atoms: _360  and  _362
REMARK  151  A    between atoms: _362  and  _363
REMARK  152  A    between atoms: _362  and  _365
REMARK  153  A    between atoms: _365  and  _366
REMARK  154  A    between atoms: _369  and  _371
REMARK  155  A    between atoms: _371  and  _372
REMARK  156  A    between atoms: _375  and  _377
REMARK  157  A    between atoms: _377  and  _378
REMARK  158  A    between atoms: _377  and  _380
REMARK  159  A    between atoms: _383  and  _385
REMARK  160  A    between atoms: _385  and  _386
REMARK  161  A    between atoms: _388  and  _390
REMARK  162  A    between atoms: _390  and  _391
REMARK  163  A    between atoms: _390  and  _393
REMARK  164  A    between atoms: _393  and  _394
REMARK  165  A    between atoms: _394  and  _395
REMARK  166  A    between atoms: _398  and  _400
REMARK  167  A    between atoms: _400  and  _401
REMARK  168  A    between atoms: _400  and  _403
REMARK  169  A    between atoms: _403  and  _404
REMARK  170  A    between atoms: _404  and  _405
REMARK  171  A    between atoms: _407  and  _409
REMARK  172  A    between atoms: _409  and  _410
REMARK  173  A    between atoms: _409  and  _412
REMARK  174  A    between atoms: _412  and  _413
REMARK  175  A    between atoms: _418  and  _419
REMARK  176  A    between atoms: _421  and  _423
REMARK  177  A    between atoms: _423  and  _424
REMARK  178  A    between atoms: _423  and  _426
REMARK  179  A    between atoms: _426  and  _427
REMARK  180  A    between atoms: _430  and  _432
REMARK  181  A    between atoms: _432  and  _433
REMARK  182  A    between atoms: _432  and  _435
REMARK  183  A    between atoms: _435  and  _436
REMARK  184  A    between atoms: _436  and  _437
REMARK  185  A    between atoms: _439  and  _441
REMARK  186  A    between atoms: _441  and  _442
REMARK  187  A    between atoms: _444  and  _446
REMARK  188  A    between atoms: _446  and  _447
REMARK  189  A    between atoms: _446  and  _449
REMARK  190  A    between atoms: _452  and  _454
REMARK  191  A    between atoms: _454  and  _455
REMARK  192  A    between atoms: _457  and  _459
REMARK  193  A    between atoms: _459  and  _460
REMARK  194  A    between atoms: _459  and  _462
REMARK  195  A    between atoms: _462  and  _463
REMARK  196  A    between atoms: _469  and  _471
REMARK  197  A    between atoms: _471  and  _472
REMARK  198  A    between atoms: _471  and  _474
REMARK  199  A    between atoms: _474  and  _475
REMARK  200  A    between atoms: _478  and  _480
REMARK  201  A    between atoms: _480  and  _481
REMARK  202  A    between atoms: _480  and  _483
REMARK  203  A    between atoms: _485  and  _487
REMARK  204  A    between atoms: _487  and  _488
REMARK  205  A    between atoms: _487  and  _490
REMARK  206  A    between atoms: _493  and  _495
REMARK  207  A    between atoms: _495  and  _496
REMARK  208  A    between atoms: _495  and  _498
REMARK  209  A    between atoms: _498  and  _499
REMARK  210  A    between atoms: _502  and  _504
REMARK  211  A    between atoms: _504  and  _505
REMARK  212  A    between atoms: _504  and  _507
REMARK  213  A    between atoms: _507  and  _508
REMARK  214  A    between atoms: _508  and  _509
REMARK  215  A    between atoms: _509  and  _510
REMARK                            x       y       z     vdW  Elec       q    Type
REMARK                         _______ _______ _______ _____ _____    ______ ____
ROOT
ATOM      1  CA  LEU A   5      24.350  17.718  19.294  0.00  0.00    +0.149 C 
ENDROOT
BRANCH   1   4
ATOM      2  C   GLY A   4      23.620  18.718  21.393  0.00  0.00    +0.243 C 
ATOM      3  O   GLY A   4      24.444  19.645  21.267  0.00  0.00    -0.273 OA
ATOM      4  N   LEU A   5      23.571  17.740  20.512  0.00  0.00    -0.297 N 
ATOM      5  H   LEU A   5      22.936  16.939  20.703  0.00  0.00    +0.150 HD
BRANCH   2   6
ATOM      6  CA  GLY A   4      22.689  18.714  22.589  0.00  0.00    +0.176 C 
BRANCH   6   9
ATOM      7  C   GLY A   3      22.530  16.438  23.309  0.00  0.00    +0.243 C 
ATOM      8  O   GLY A   3      23.736  16.381  23.492  0.00  0.00    -0.273 OA
ATOM      9  N   GLY A   4      21.887  17.492  22.769  0.00  0.00    -0.295 N 
ATOM     10  H   GLY A   4      20.885  17.445  22.496  0.00  0.00    +0.150 HD
BRANCH   7  11
ATOM     11  CA  GLY A   3      21.644  15.285  23.698  0.00  0.00    +0.176 C 
BRANCH  11  13
ATOM     12  C   VAL A   2      22.654  13.146  23.226  0.00  0.00    +0.241 C 
ATOM     13  N   GLY A   3      22.382  14.119  24.079  0.00  0.00    -0.295 N 
ATOM     14  H   GLY A   3      22.716  14.034  25.060  0.00  0.00    +0.150 HD
ATOM     15  O   VAL A   2      22.286  13.178  22.050  0.00  0.00    -0.273 OA
BRANCH  12  16
ATOM     16  CA  VAL A   2      23.442  11.975  23.798  0.00  0.00    +0.148 C 
BRANCH  16  19
ATOM     17  C   ALA A   1      21.910  10.556  25.061  0.00  0.00    +0.238 C 
ATOM     18  O   ALA A   1      22.222  11.034  26.170  0.00  0.00    -0.274 OA
ATOM     19  N   VAL A   2      22.535  10.867  23.940  0.00  0.00    -0.297 N 
ATOM     20  H   VAL A   2      22.360  10.272  23.105  0.00  0.00    +0.150 HD
BRANCH  17  21
ATOM     21  CA  ALA A   1      20.772   9.565  24.923  0.00  0.00    +0.145 C 
ATOM     22  CB  ALA A   1      19.487  10.305  24.600  0.00  0.00    +0.028 C 
BRANCH  21  23
ATOM     23  N   ALA A   1      20.628   8.777  26.121  0.00  0.00    -0.238 NA
ATOM     24  H   ALA A   1      20.033   9.128  26.899  0.00  0.00    +0.142 HD
ENDBRANCH  21  23
ENDBRANCH  17  21
ENDBRANCH  16  19
BRANCH  16  25
ATOM     25  CB  VAL A   2      24.657  11.672  22.922  0.00  0.00    +0.027 C 
ATOM     26  CG2 VAL A   2      25.425  10.472  23.523  0.00  0.00    +0.002 C 
ATOM     27  CG1 VAL A   2      25.562  12.869  22.781  0.00  0.00    +0.002 C 
ENDBRANCH  16  25
ENDBRANCH  12  16
ENDBRANCH  11  13
ENDBRANCH   7  11
ENDBRANCH   6   9
ENDBRANCH   2   6
ENDBRANCH   1   4
BRANCH   1  28
ATOM     28  C   LEU A   5      23.425  17.833  18.097  0.00  0.00    +0.241 C 
ATOM     29  O   LEU A   5      22.203  17.914  18.214  0.00  0.00    -0.273 OA
ATOM     30  N   ALA A   6      24.024  17.878  16.931  0.00  0.00    -0.297 N 
ATOM     31  H   ALA A   6      25.034  17.646  16.839  0.00  0.00    +0.150 HD
BRANCH  30  32
ATOM     32  CA  ALA A   6      23.224  18.268  15.752  0.00  0.00    +0.149 C 
ATOM     33  CB  ALA A   6      22.400  17.040  15.403  0.00  0.00    +0.031 C 
BRANCH  32  34
ATOM     34  C   ALA A   6      22.418  19.525  15.974  0.00  0.00    +0.241 C 
ATOM     35  N   VAL A   7      23.074  20.580  16.462  0.00  0.00    -0.297 N 
ATOM     36  H   VAL A   7      24.089  20.501  16.676  0.00  0.00    +0.150 HD
ATOM     37  O   ALA A   6      21.219  19.698  15.770  0.00  0.00    -0.273 OA
BRANCH  35  38
ATOM     38  CA  VAL A   7      22.379  21.851  16.700  0.00  0.00    +0.149 C 
BRANCH  38  39
ATOM     39  C   VAL A   7      23.147  23.010  16.064  0.00  0.00    +0.241 C 
ATOM     40  O   VAL A   7      22.951  24.172  16.447  0.00  0.00    -0.273 OA
ATOM     41  N   GLY A   8      24.001  22.689  15.114  0.00  0.00    -0.295 N 
ATOM     42  H   GLY A   8      24.094  21.682  14.872  0.00  0.00    +0.150 HD
BRANCH  41  43
ATOM     43  CA  GLY A   8      24.814  23.625  14.386  0.00  0.00    +0.176 C 
BRANCH  43  44
ATOM     44  C   GLY A   8      26.312  23.500  14.512  0.00  0.00    +0.243 C 
ATOM     45  N   GLU A   9      26.855  22.471  15.156  0.00  0.00    -0.298 N 
ATOM     46  H   GLU A   9      26.247  21.698  15.495  0.00  0.00    +0.150 HD
ATOM     47  O   GLY A   8      27.008  24.387  13.982  0.00  0.00    -0.273 OA
BRANCH  45  48
ATOM     48  CA  GLU A   9      28.296  22.412  15.394  0.00  0.00    +0.137 C 
BRANCH  48  49
ATOM     49  C   GLU A   9      29.061  21.809  14.228  0.00  0.00    +0.227 C 
ATOM     50  O   GLU A   9      30.278  21.988  14.149  0.00  0.00    -0.286 OA
ENDBRANCH  48  49
BRANCH  48  51
ATOM     51  CB  GLU A   9      28.614  21.675  16.687  0.00  0.00    +0.039 C 
BRANCH  51  52
ATOM     52  CG  GLU A   9      28.422  20.183  16.732  0.00  0.00    +0.116 C 
BRANCH  52  53
ATOM     53  CD  GLU A   9      26.971  19.741  16.760  0.00  0.00    +0.365 C 
ATOM     54  OE2 GLU A   9      25.990  20.510  16.840  0.00  0.00    -0.246 OA
ATOM     55  OE1 GLU A   9      26.791  18.498  16.676  0.00  0.00    -0.246 OA
ENDBRANCH  52  53
ENDBRANCH  51  52
ENDBRANCH  48  51
ENDBRANCH  45  48
ENDBRANCH  43  44
ENDBRANCH  41  43
ENDBRANCH  38  39
BRANCH  38  56
ATOM     56  CB  VAL A   7      22.232  22.161  18.194  0.00  0.00    +0.027 C 
ATOM     57  CG2 VAL A   7      21.250  21.228  18.873  0.00  0.00    +0.002 C 
ATOM     58  CG1 VAL A   7      23.599  22.062  18.852  0.00  0.00    +0.002 C 
ENDBRANCH  38  56
ENDBRANCH  35  38
ENDBRANCH  32  34
ENDBRANCH  30  32
ENDBRANCH   1  28
BRANCH   1  59
ATOM     59  CB  LEU A   5      25.277  16.502  19.252  0.00  0.00    +0.029 C 
BRANCH  59  60
ATOM     60  CG  LEU A   5      26.305  16.418  20.390  0.00  0.00    +0.002 C 
ATOM     61  CD2 LEU A   5      27.218  17.636  20.376  0.00  0.00    +0.000 C 
ATOM     62  CD1 LEU A   5      27.159  15.158  20.330  0.00  0.00    +0.000 C 
ENDBRANCH  59  60
ENDBRANCH   1  59
TORSDOF 25
REMARK  Name = ../refined-set-2016/3ge7/3ge7_pocket.pdb
REMARK  215 active torsions:
REMARK  status: ('A' for Active; 'I' for Inactive)
REMARK    1  A    between atoms: _1  and  _3
REMARK    2  A    between atoms: _3  and  _4
REMARK    3  A    between atoms: _3  and  _6
REMARK    4  A    between atoms: _6  and  _7
REMARK    5  A    between atoms: _7  and  _8
REMARK    6  A    between atoms: _11  and  _12
REMARK    7  A    between atoms: _17  and  _19
REMARK    8  A    between atoms: _19  and  _20
REMARK    9  A    between atoms: _19  and  _22
REMARK   10  A    between atoms: _25  and  _27
REMARK   11  A    between atoms: _27  and  _28
REMARK   12  A    between atoms: _30  and  _32
REMARK   13  A    between atoms: _32  and  _33
REMARK   14  A    between atoms: _32  and  _35
REMARK   15  A    between atoms: _35  and  _36
REMARK   16  A    between atoms: _39  and  _41
REMARK   17  A    between atoms: _41  and  _42
REMARK   18  A    between atoms: _45  and  _47
REMARK   19  A    between atoms: _47  and  _48
REMARK   20  A    between atoms: _47  and  _50
REMARK   21  A    between atoms: _50  and  _51
REMARK   22  A    between atoms: _51  and  _52
REMARK   23  A    between atoms: _52  and  _53
REMARK   24  A    between atoms: _53  and  _54
REMARK   25  A    between atoms: _58  and  _60
REMARK   26  A    between atoms: _60  and  _61
REMARK   27  A    between atoms: _60  and  _63
REMARK   28  A    between atoms: _63  and  _64
REMARK   29  A    between atoms: _67  and  _69
REMARK   30  A    between atoms: _69  and  _70
REMARK   31  A    between atoms: _72  and  _74
REMARK   32  A    between atoms: _74  and  _75
REMARK   33  A    between atoms: _74  and  _77
REMARK   34  A    between atoms: _77  and  _78
REMARK   35  A    between atoms: _83  and  _85
REMARK   36  A    between atoms: _85  and  _86
REMARK   37  A    between atoms: _85  and  _88
REMARK   38  A    between atoms: _88  and  _89
REMARK   39  A    between atoms: _92  and  _94
REMARK   40  A    between atoms: _94  and  _95
REMARK   41  A    between atoms: _94  and  _97
REMARK   42  A    between atoms: _97  and  _98
REMARK   43  A    between atoms: _103  and  _104
REMARK   44  A    between atoms: _106  and  _108
REMARK   45  A    between atoms: _108  and  _109
REMARK   46  A    between atoms: _108  and  _111
REMARK   47  A    between atoms: _111  and  _112
REMARK   48  A    between atoms: _117  and  _119
REMARK   49  A    between atoms: _119  and  _120
REMARK   50  A    between atoms: _119  and  _122
REMARK   51  A    between atoms: _122  and  _123
REMARK   52  A    between atoms: _126  and  _128
REMARK   53  A    between atoms: _128  and  _129
REMARK   54  A    between atoms: _128  and  _131
REMARK   55  A    between atoms: _131  and  _132
REMARK   56  A    between atoms: _135  and  _137
REMARK   57  A    between atoms: _137  and  _138
REMARK   58  A    between atoms: _137  and  _140
REMARK   59  A    between atoms: _140  and  _141
REMARK   60  A    between atoms: _144  and  _146
REMARK   61  A    between atoms: _146  and  _147
REMARK   62  A    between atoms: _146  and  _149
REMARK   63  A    between atoms: _149  and  _150
REMARK   64  A    between atoms: _153  and  _155
REMARK   65  A    between atoms: _155  and  _156
REMARK   66  A    between atoms: _155  and  _158
REMARK   67  A    between atoms: _158  and  _159
REMARK   68  A    between atoms: _161  and  _163
REMARK   69  A    between atoms: _163  and  _164
REMARK   70  A    between atoms: _166  and  _168
REMARK   71  A    between atoms: _168  and  _169
REMARK   72  A    between atoms: _171  and  _173
REMARK   73  A    between atoms: _173  and  _174
REMARK   74  A    between atoms: _173  and  _176
REMARK   75  A    between atoms: _176  and  _177
REMARK   76  A    between atoms: _182  and  _183
REMARK   77  A    between atoms: _185  and  _187
REMARK   78  A    between atoms: _187  and  _188
REMARK   79  A    between atoms: _187  and  _190
REMARK   80  A    between atoms: _190  and  _191
REMARK   81  A    between atoms: _191  and  _192
REMARK   82  A    between atoms: _197  and  _199
REMARK   83  A    between atoms: _199  and  _200
REMARK   84  A    between atoms: _203  and  _205
REMARK   85  A    between atoms: _205  and  _206
REMARK   86  A    between atoms: _205  and  _208
REMARK   87  A    between atoms: _208  and  _209
REMARK   88  A    between atoms: _209  and  _210
REMARK   89  A    between atoms: _212  and  _214
REMARK   90  A    between atoms: _214  and  _215
REMARK   91  A    between atoms: _218  and  _220
REMARK   92  A    between atoms: _220  and  _221
REMARK   93  A    between atoms: _220  and  _223
REMARK   94  A    between atoms: _223  and  _224
REMARK   95  A    between atoms: _230  and  _232
REMARK   96  A    between atoms: _232  and  _233
REMARK   97  A    between atoms: _232  and  _235
REMARK   98  A    between atoms: _235  and  _236
REMARK   99  A    between atoms: _239  and  _241
REMARK  100  A    between atoms: _241  and  _242
REMARK  101  A    between atoms: _241  and  _244
REMARK  102  A    between atoms: _244  and  _245
REMARK  103  A    between atoms: _245  and  _246
REMARK  104  A    between atoms: _249  and  _251
REMARK  105  A    between atoms: _251  and  _252
REMARK  106  A    between atoms: _251  and  _254
REMARK  107  A    between atoms: _256  and  _258
REMARK  108  A    between atoms: _258  and  _259
REMARK  109  A    between atoms: _258  and  _261
REMARK  110  A    between atoms: _261  and  _262
REMARK  111  A    between atoms: _265  and  _267
REMARK  112  A    between atoms: _267  and  _268
REMARK  113  A    between atoms: _267  and  _270
REMARK  114  A    between atoms: _270  and  _271
REMARK  115  A    between atoms: _273  and  _275
REMARK  116  A    between atoms: _275  and  _276
REMARK  117  A    between atoms: _275  and  _278
REMARK  118  A    between atoms: _278  and  _279
REMARK  119  A    between atoms: _282  and  _284
REMARK  120  A    between atoms: _284  and  _285
REMARK  121  A    between atoms: _284  and  _287
REMARK  122  A    between atoms: _287  and  _288
REMARK  123  A    between atoms: _288  and  _289
REMARK  124  A    between atoms: _294  and  _296
REMARK  125  A    between atoms: _296  and  _297
REMARK  126  A    between atoms: _296  and  _299
REMARK  127  A    between atoms: _299  and  _300
REMARK  128  A    between atoms: _300  and  _301
REMARK  129  A    between atoms: _306  and  _308
REMARK  130  A    between atoms: _308  and  _309
REMARK  131  A    between atoms: _311  and  _313
REMARK  132  A    between atoms: _313  and  _314
REMARK  133  A    between atoms: _313  and  _316
REMARK  134  A    between atoms: _316  and  _317
REMARK  135  A    between atoms: _319  and  _321
REMARK  136  A    between atoms: _321  and  _322
REMARK  137  A    between atoms: _321  and  _324
REMARK  138  A    between atoms: _324  and  _325
REMARK  139  A    between atoms: _325  and  _326
REMARK  140  A    between atoms: _326  and  _327
REMARK  141  A    between atoms: _336  and  _338
REMARK  142  A    between atoms: _338  and  _339
REMARK  143  A    between atoms: _342  and  _344
REMARK  144  A    between atoms: _344  and  _345
REMARK  145  A    between atoms: _344  and  _347
REMARK  146  A    between atoms: _350  and  _352
REMARK  147  A    between atoms: _352  and  _353
REMARK  148  A    between atoms: _355  and  _357
REMARK  149  A    between atoms: _357  and  _358
REMARK  150  A    between atoms: _360  and  _362
REMARK  151  A    between atoms: _362  and  _363
REMARK  152  A    between atoms: _362  and  _365
REMARK  153  A    between atoms: _365  and  _366
REMARK  154  A    between atoms: _369  and  _371
REMARK  155  A    between atoms: _371  and  _372
REMARK  156  A    between atoms: _375  and  _377
REMARK  157  A    between atoms: _377  and  _378
REMARK  158  A    between atoms: _377  and  _380
REMARK  159  A    between atoms: _383  and  _385
REMARK  160  A    between atoms: _385  and  _386
REMARK  161  A    between atoms: _388  and  _390
REMARK  162  A    between atoms: _390  and  _391
REMARK  163  A    between atoms: _390  and  _393
REMARK  164  A    between atoms: _393  and  _394
REMARK  165  A    between atoms: _394  and  _395
REMARK  166  A    between atoms: _398  and  _400
REMARK  167  A    between atoms: _400  and  _401
REMARK  168  A    between atoms: _400  and  _403
REMARK  169  A    between atoms: _403  and  _404
REMARK  170  A    between atoms: _404  and  _405
REMARK  171  A    between atoms: _407  and  _409
REMARK  172  A    between atoms: _409  and  _410
REMARK  173  A    between atoms: _409  and  _412
REMARK  174  A    between atoms: _412  and  _413
REMARK  175  A    between atoms: _418  and  _419
REMARK  176  A    between atoms: _421  and  _423
REMARK  177  A    between atoms: _423  and  _424
REMARK  178  A    between atoms: _423  and  _426
REMARK  179  A    between atoms: _426  and  _427
REMARK  180  A    between atoms: _430  and  _432
REMARK  181  A    between atoms: _432  and  _433
REMARK  182  A    between atoms: _432  and  _435
REMARK  183  A    between atoms: _435  and  _436
REMARK  184  A    between atoms: _436  and  _437
REMARK  185  A    between atoms: _439  and  _441
REMARK  186  A    between atoms: _441  and  _442
REMARK  187  A    between atoms: _444  and  _446
REMARK  188  A    between atoms: _446  and  _447
REMARK  189  A    between atoms: _446  and  _449
REMARK  190  A    between atoms: _452  and  _454
REMARK  191  A    between atoms: _454  and  _455
REMARK  192  A    between atoms: _457  and  _459
REMARK  193  A    between atoms: _459  and  _460
REMARK  194  A    between atoms: _459  and  _462
REMARK  195  A    between atoms: _462  and  _463
REMARK  196  A    between atoms: _469  and  _471
REMARK  197  A    between atoms: _471  and  _472
REMARK  198  A    between atoms: _471  and  _474
REMARK  199  A    between atoms: _474  and  _475
REMARK  200  A    between atoms: _478  and  _480
REMARK  201  A    between atoms: _480  and  _481
REMARK  202  A    between atoms: _480  and  _483
REMARK  203  A    between atoms: _485  and  _487
REMARK  204  A    between atoms: _487  and  _488
REMARK  205  A    between atoms: _487  and  _490
REMARK  206  A    between atoms: _493  and  _495
REMARK  207  A    between atoms: _495  and  _496
REMARK  208  A    between atoms: _495  and  _498
REMARK  209  A    between atoms: _498  and  _499
REMARK  210  A    between atoms: _502  and  _504
REMARK  211  A    between atoms: _504  and  _505
REMARK  212  A    between atoms: _504  and  _507
REMARK  213  A    between atoms: _507  and  _508
REMARK  214  A    between atoms: _508  and  _509
REMARK  215  A    between atoms: _509  and  _510
REMARK                            x       y       z     vdW  Elec       q    Type
REMARK                         _______ _______ _______ _____ _____    ______ ____
ROOT
ATOM      1  CA  MET A   1      29.985  16.398  16.585  0.00  0.00    +0.134 C 
ENDROOT
BRANCH   1   2
ATOM      2  N   MET A   1      30.869  17.416  16.013  0.00  0.00    -0.239 NA
ATOM      3  H   MET A   1      30.704  17.815  15.067  0.00  0.00    +0.142 HD
ENDBRANCH   1   2
BRANCH   1   4
ATOM      4  C   MET A   1      30.733  15.108  16.903  0.00  0.00    +0.224 C 
ATOM      5  O   MET A   1      30.630  14.516  17.971  0.00  0.00    -0.287 OA
ENDBRANCH   1   4
BRANCH   1   6
ATOM      6  CB  MET A   1      28.823  16.135  15.635  0.00  0.00    +0.037 C 
BRANCH   6   7
ATOM      7  CG  MET A   1      27.745  15.301  16.318  0.00  0.00    +0.059 C 
BRANCH   7   8
ATOM      8  SD  MET A   1      26.389  14.873  15.246  0.00  0.00    -0.139 S 
ATOM      9  CE  MET A   1      27.193  14.022  13.925  0.00  0.00    +0.069 C 
ENDBRANCH   7   8
ENDBRANCH   6   7
ENDBRANCH   1   6
TORSDOF 5
REMARK  Name = ../refined-set-2016/3ge7/3ge7_pocket.pdb
REMARK  215 active torsions:
REMARK  status: ('A' for Active; 'I' for Inactive)
REMARK    1  A    between atoms: _1  and  _3
REMARK    2  A    between atoms: _3  and  _4
REMARK    3  A    between atoms: _3  and  _6
REMARK    4  A    between atoms: _6  and  _7
REMARK    5  A    between atoms: _7  and  _8
REMARK    6  A    between atoms: _11  and  _12
REMARK    7  A    between atoms: _17  and  _19
REMARK    8  A    between atoms: _19  and  _20
REMARK    9  A    between atoms: _19  and  _22
REMARK   10  A    between atoms: _25  and  _27
REMARK   11  A    between atoms: _27  and  _28
REMARK   12  A    between atoms: _30  and  _32
REMARK   13  A    between atoms: _32  and  _33
REMARK   14  A    between atoms: _32  and  _35
REMARK   15  A    between atoms: _35  and  _36
REMARK   16  A    between atoms: _39  and  _41
REMARK   17  A    between atoms: _41  and  _42
REMARK   18  A    between atoms: _45  and  _47
REMARK   19  A    between atoms: _47  and  _48
REMARK   20  A    between atoms: _47  and  _50
REMARK   21  A    between atoms: _50  and  _51
REMARK   22  A    between atoms: _51  and  _52
REMARK   23  A    between atoms: _52  and  _53
REMARK   24  A    between atoms: _53  and  _54
REMARK   25  A    between atoms: _58  and  _60
REMARK   26  A    between atoms: _60  and  _61
REMARK   27  A    between atoms: _60  and  _63
REMARK   28  A    between atoms: _63  and  _64
REMARK   29  A    between atoms: _67  and  _69
REMARK   30  A    between atoms: _69  and  _70
REMARK   31  A    between atoms: _72  and  _74
REMARK   32  A    between atoms: _74  and  _75
REMARK   33  A    between atoms: _74  and  _77
REMARK   34  A    between atoms: _77  and  _78
REMARK   35  A    between atoms: _83  and  _85
REMARK   36  A    between atoms: _85  and  _86
REMARK   37  A    between atoms: _85  and  _88
REMARK   38  A    between atoms: _88  and  _89
REMARK   39  A    between atoms: _92  and  _94
REMARK   40  A    between atoms: _94  and  _95
REMARK   41  A    between atoms: _94  and  _97
REMARK   42  A    between atoms: _97  and  _98
REMARK   43  A    between atoms: _103  and  _104
REMARK   44  A    between atoms: _106  and  _108
REMARK   45  A    between atoms: _108  and  _109
REMARK   46  A    between atoms: _108  and  _111
REMARK   47  A    between atoms: _111  and  _112
REMARK   48  A    between atoms: _117  and  _119
REMARK   49  A    between atoms: _119  and  _120
REMARK   50  A    between atoms: _119  and  _122
REMARK   51  A    between atoms: _122  and  _123
REMARK   52  A    between atoms: _126  and  _128
REMARK   53  A    between atoms: _128  and  _129
REMARK   54  A    between atoms: _128  and  _131
REMARK   55  A    between atoms: _131  and  _132
REMARK   56  A    between atoms: _135  and  _137
REMARK   57  A    between atoms: _137  and  _138
REMARK   58  A    between atoms: _137  and  _140
REMARK   59  A    between atoms: _140  and  _141
REMARK   60  A    between atoms: _144  and  _146
REMARK   61  A    between atoms: _146  and  _147
REMARK   62  A    between atoms: _146  and  _149
REMARK   63  A    between atoms: _149  and  _150
REMARK   64  A    between atoms: _153  and  _155
REMARK   65  A    between atoms: _155  and  _156
REMARK   66  A    between atoms: _155  and  _158
REMARK   67  A    between atoms: _158  and  _159
REMARK   68  A    between atoms: _161  and  _163
REMARK   69  A    between atoms: _163  and  _164
REMARK   70  A    between atoms: _166  and  _168
REMARK   71  A    between atoms: _168  and  _169
REMARK   72  A    between atoms: _171  and  _173
REMARK   73  A    between atoms: _173  and  _174
REMARK   74  A    between atoms: _173  and  _176
REMARK   75  A    between atoms: _176  and  _177
REMARK   76  A    between atoms: _182  and  _183
REMARK   77  A    between atoms: _185  and  _187
REMARK   78  A    between atoms: _187  and  _188
REMARK   79  A    between atoms: _187  and  _190
REMARK   80  A    between atoms: _190  and  _191
REMARK   81  A    between atoms: _191  and  _192
REMARK   82  A    between atoms: _197  and  _199
REMARK   83  A    between atoms: _199  and  _200
REMARK   84  A    between atoms: _203  and  _205
REMARK   85  A    between atoms: _205  and  _206
REMARK   86  A    between atoms: _205  and  _208
REMARK   87  A    between atoms: _208  and  _209
REMARK   88  A    between atoms: _209  and  _210
REMARK   89  A    between atoms: _212  and  _214
REMARK   90  A    between atoms: _214  and  _215
REMARK   91  A    between atoms: _218  and  _220
REMARK   92  A    between atoms: _220  and  _221
REMARK   93  A    between atoms: _220  and  _223
REMARK   94  A    between atoms: _223  and  _224
REMARK   95  A    between atoms: _230  and  _232
REMARK   96  A    between atoms: _232  and  _233
REMARK   97  A    between atoms: _232  and  _235
REMARK   98  A    between atoms: _235  and  _236
REMARK   99  A    between atoms: _239  and  _241
REMARK  100  A    between atoms: _241  and  _242
REMARK  101  A    between atoms: _241  and  _244
REMARK  102  A    between atoms: _244  and  _245
REMARK  103  A    between atoms: _245  and  _246
REMARK  104  A    between atoms: _249  and  _251
REMARK  105  A    between atoms: _251  and  _252
REMARK  106  A    between atoms: _251  and  _254
REMARK  107  A    between atoms: _256  and  _258
REMARK  108  A    between atoms: _258  and  _259
REMARK  109  A    between atoms: _258  and  _261
REMARK  110  A    between atoms: _261  and  _262
REMARK  111  A    between atoms: _265  and  _267
REMARK  112  A    between atoms: _267  and  _268
REMARK  113  A    between atoms: _267  and  _270
REMARK  114  A    between atoms: _270  and  _271
REMARK  115  A    between atoms: _273  and  _275
REMARK  116  A    between atoms: _275  and  _276
REMARK  117  A    between atoms: _275  and  _278
REMARK  118  A    between atoms: _278  and  _279
REMARK  119  A    between atoms: _282  and  _284
REMARK  120  A    between atoms: _284  and  _285
REMARK  121  A    between atoms: _284  and  _287
REMARK  122  A    between atoms: _287  and  _288
REMARK  123  A    between atoms: _288  and  _289
REMARK  124  A    between atoms: _294  and  _296
REMARK  125  A    between atoms: _296  and  _297
REMARK  126  A    between atoms: _296  and  _299
REMARK  127  A    between atoms: _299  and  _300
REMARK  128  A    between atoms: _300  and  _301
REMARK  129  A    between atoms: _306  and  _308
REMARK  130  A    between atoms: _308  and  _309
REMARK  131  A    between atoms: _311  and  _313
REMARK  132  A    between atoms: _313  and  _314
REMARK  133  A    between atoms: _313  and  _316
REMARK  134  A    between atoms: _316  and  _317
REMARK  135  A    between atoms: _319  and  _321
REMARK  136  A    between atoms: _321  and  _322
REMARK  137  A    between atoms: _321  and  _324
REMARK  138  A    between atoms: _324  and  _325
REMARK  139  A    between atoms: _325  and  _326
REMARK  140  A    between atoms: _326  and  _327
REMARK  141  A    between atoms: _336  and  _338
REMARK  142  A    between atoms: _338  and  _339
REMARK  143  A    between atoms: _342  and  _344
REMARK  144  A    between atoms: _344  and  _345
REMARK  145  A    between atoms: _344  and  _347
REMARK  146  A    between atoms: _350  and  _352
REMARK  147  A    between atoms: _352  and  _353
REMARK  148  A    between atoms: _355  and  _357
REMARK  149  A    between atoms: _357  and  _358
REMARK  150  A    between atoms: _360  and  _362
REMARK  151  A    between atoms: _362  and  _363
REMARK  152  A    between atoms: _362  and  _365
REMARK  153  A    between atoms: _365  and  _366
REMARK  154  A    between atoms: _369  and  _371
REMARK  155  A    between atoms: _371  and  _372
REMARK  156  A    between atoms: _375  and  _377
REMARK  157  A    between atoms: _377  and  _378
REMARK  158  A    between atoms: _377  and  _380
REMARK  159  A    between atoms: _383  and  _385
REMARK  160  A    between atoms: _385  and  _386
REMARK  161  A    between atoms: _388  and  _390
REMARK  162  A    between atoms: _390  and  _391
REMARK  163  A    between atoms: _390  and  _393
REMARK  164  A    between atoms: _393  and  _394
REMARK  165  A    between atoms: _394  and  _395
REMARK  166  A    between atoms: _398  and  _400
REMARK  167  A    between atoms: _400  and  _401
REMARK  168  A    between atoms: _400  and  _403
REMARK  169  A    between atoms: _403  and  _404
REMARK  170  A    between atoms: _404  and  _405
REMARK  171  A    between atoms: _407  and  _409
REMARK  172  A    between atoms: _409  and  _410
REMARK  173  A    between atoms: _409  and  _412
REMARK  174  A    between atoms: _412  and  _413
REMARK  175  A    between atoms: _418  and  _419
REMARK  176  A    between atoms: _421  and  _423
REMARK  177  A    between atoms: _423  and  _424
REMARK  178  A    between atoms: _423  and  _426
REMARK  179  A    between atoms: _426  and  _427
REMARK  180  A    between atoms: _430  and  _432
REMARK  181  A    between atoms: _432  and  _433
REMARK  182  A    between atoms: _432  and  _435
REMARK  183  A    between atoms: _435  and  _436
REMARK  184  A    between atoms: _436  and  _437
REMARK  185  A    between atoms: _439  and  _441
REMARK  186  A    between atoms: _441  and  _442
REMARK  187  A    between atoms: _444  and  _446
REMARK  188  A    between atoms: _446  and  _447
REMARK  189  A    between atoms: _446  and  _449
REMARK  190  A    between atoms: _452  and  _454
REMARK  191  A    between atoms: _454  and  _455
REMARK  192  A    between atoms: _457  and  _459
REMARK  193  A    between atoms: _459  and  _460
REMARK  194  A    between atoms: _459  and  _462
REMARK  195  A    between atoms: _462  and  _463
REMARK  196  A    between atoms: _469  and  _471
REMARK  197  A    between atoms: _471  and  _472
REMARK  198  A    between atoms: _471  and  _474
REMARK  199  A    between atoms: _474  and  _475
REMARK  200  A    between atoms: _478  and  _480
REMARK  201  A    between atoms: _480  and  _481
REMARK  202  A    between atoms: _480  and  _483
REMARK  203  A    between atoms: _485  and  _487
REMARK  204  A    between atoms: _487  and  _488
REMARK  205  A    between atoms: _487  and  _490
REMARK  206  A    between atoms: _493  and  _495
REMARK  207  A    between atoms: _495  and  _496
REMARK  208  A    between atoms: _495  and  _498
REMARK  209  A    between atoms: _498  and  _499
REMARK  210  A    between atoms: _502  and  _504
REMARK  211  A    between atoms: _504  and  _505
REMARK  212  A    between atoms: _504  and  _507
REMARK  213  A    between atoms: _507  and  _508
REMARK  214  A    between atoms: _508  and  _509
REMARK  215  A    between atoms: _509  and  _510
REMARK                            x       y       z     vdW  Elec       q    Type
REMARK                         _______ _______ _______ _____ _____    ______ ____
ROOT
ATOM      1  C   LEU A   2      20.804  10.798  18.761  0.00  0.00    +0.241 C 
ATOM      2  N   MET A   3      20.291  11.778  19.497  0.00  0.00    -0.297 N 
ATOM      3  H   MET A   3      20.792  12.088  20.354  0.00  0.00    +0.150 HD
ATOM      4  O   LEU A   2      20.359  10.470  17.650  0.00  0.00    -0.273 OA
ENDROOT
BRANCH   2   5
ATOM      5  CA  MET A   3      19.048  12.423  19.129  0.00  0.00    +0.149 C 
BRANCH   5   6
ATOM      6  C   MET A   3      19.219  13.355  17.922  0.00  0.00    +0.241 C 
ATOM      7  O   MET A   3      20.061  14.254  17.925  0.00  0.00    -0.273 OA
ATOM      8  N   GLY A   4      18.381  13.202  16.934  0.00  0.00    -0.295 N 
ATOM      9  H   GLY A   4      17.751  12.375  16.937  0.00  0.00    +0.150 HD
BRANCH   8  10
ATOM     10  CA  GLY A   4      18.294  14.137  15.836  0.00  0.00    +0.176 C 
BRANCH  10  11
ATOM     11  C   GLY A   4      19.332  13.957  14.748  0.00  0.00    +0.243 C 
ATOM     12  N   VAL A   5      20.063  12.852  14.785  0.00  0.00    -0.297 N 
ATOM     13  H   VAL A   5      19.922  12.178  15.564  0.00  0.00    +0.150 HD
ATOM     14  O   GLY A   4      19.409  14.818  13.856  0.00  0.00    -0.273 OA
BRANCH  12  15
ATOM     15  CA  VAL A   5      21.063  12.556  13.759  0.00  0.00    +0.149 C 
BRANCH  15  16
ATOM     16  C   VAL A   5      20.615  11.415  12.893  0.00  0.00    +0.241 C 
ATOM     17  O   VAL A   5      20.121  10.415  13.465  0.00  0.00    -0.273 OA
ATOM     18  N   GLY A   6      20.714  11.405  11.586  0.00  0.00    -0.296 N 
ATOM     19  H   GLY A   6      20.441  10.527  11.101  0.00  0.00    +0.150 HD
BRANCH  18  20
ATOM     20  CA  GLY A   6      21.165  12.493  10.757  0.00  0.00    +0.163 C 
BRANCH  20  21
ATOM     21  C   GLY A   6      21.438  11.978   9.354  0.00  0.00    +0.229 C 
ATOM     22  O   GLY A   6      20.747  11.053   8.927  0.00  0.00    -0.286 OA
ENDBRANCH  20  21
ENDBRANCH  18  20
ENDBRANCH  15  16
BRANCH  15  23
ATOM     23  CB  VAL A   5      22.427  12.229  14.422  0.00  0.00    +0.027 C 
ATOM     24  CG2 VAL A   5      22.864  13.490  15.153  0.00  0.00    +0.002 C 
ATOM     25  CG1 VAL A   5      23.422  11.763  13.370  0.00  0.00    +0.002 C 
ENDBRANCH  15  23
ENDBRANCH  12  15
ENDBRANCH  10  11
ENDBRANCH   8  10
ENDBRANCH   5   6
BRANCH   5  26
ATOM     26  CB  MET A   3      18.505  13.234  20.325  0.00  0.00    +0.041 C 
BRANCH  26  27
ATOM     27  CG  MET A   3      18.393  12.435  21.585  0.00  0.00    +0.060 C 
BRANCH  27  28
ATOM     28  SD  MET A   3      17.557  13.186  22.999  0.00  0.00    -0.139 S 
ATOM     29  CE  MET A   3      15.862  13.002  22.532  0.00  0.00    +0.069 C 
ENDBRANCH  27  28
ENDBRANCH  26  27
ENDBRANCH   5  26
ENDBRANCH   2   5
BRANCH   1  30
ATOM     30  CA  LEU A   2      22.008  10.098  19.352  0.00  0.00    +0.149 C 
BRANCH  30  33
ATOM     31  C   TYR A   1      21.281   8.538  21.089  0.00  0.00    +0.239 C 
ATOM     32  O   TYR A   1      21.279   9.413  21.937  0.00  0.00    -0.274 OA
ATOM     33  N   LEU A   2      21.627   8.770  19.823  0.00  0.00    -0.297 N 
ATOM     34  H   LEU A   2      21.625   7.979  19.148  0.00  0.00    +0.150 HD
BRANCH  31  35
ATOM     35  CA  TYR A   1      20.738   7.154  21.427  0.00  0.00    +0.149 C 
BRANCH  35  36
ATOM     36  N   TYR A   1      21.664   6.508  22.395  0.00  0.00    -0.238 NA
ATOM     37  H   TYR A   1      21.707   6.917  23.350  0.00  0.00    +0.142 HD
ENDBRANCH  35  36
BRANCH  35  38
ATOM     38  CB  TYR A   1      19.311   7.126  21.985  0.00  0.00    +0.053 C 
BRANCH  38  39
ATOM     39  CG  TYR A   1      18.253   7.946  21.279  0.00  0.00    -0.020 A 
ATOM     40  CD2 TYR A   1      17.164   8.392  22.055  0.00  0.00    -0.001 A 
ATOM     41  CE2 TYR A   1      16.176   9.155  21.481  0.00  0.00    +0.036 A 
ATOM     42  CZ  TYR A   1      16.229   9.475  20.150  0.00  0.00    +0.134 A 
ATOM     43  CE1 TYR A   1      17.262   9.046  19.348  0.00  0.00    +0.036 A 
ATOM     44  CD1 TYR A   1      18.245   8.295  19.959  0.00  0.00    -0.001 A 
BRANCH  42  45
ATOM     45  OH  TYR A   1      15.223  10.233  19.595  0.00  0.00    -0.506 OA
ATOM     46  HH  TYR A   1      15.410  10.374  18.633  0.00  0.00    +0.292 HD
ENDBRANCH  42  45
ENDBRANCH  38  39
ENDBRANCH  35  38
ENDBRANCH  31  35
ENDBRANCH  30  33
BRANCH  30  47
ATOM     47  CB  LEU A   2      23.162  10.012  18.371  0.00  0.00    +0.029 C 
BRANCH  47  48
ATOM     48  CG  LEU A   2      23.734  11.325  17.835  0.00  0.00    +0.002 C 
ATOM     49  CD2 LEU A   2      24.190  12.223  18.972  0.00  0.00    +0.000 C 
ATOM     50  CD1 LEU A   2      24.862  11.107  16.842  0.00  0.00    +0.000 C 
ENDBRANCH  47  48
ENDBRANCH  30  47
ENDBRANCH   1  30
TORSDOF 21
REMARK  Name = ../refined-set-2016/3ge7/3ge7_pocket.pdb
REMARK  215 active torsions:
REMARK  status: ('A' for Active; 'I' for Inactive)
REMARK    1  A    between atoms: _1  and  _3
REMARK    2  A    between atoms: _3  and  _4
REMARK    3  A    between atoms: _3  and  _6
REMARK    4  A    between atoms: _6  and  _7
REMARK    5  A    between atoms: _7  and  _8
REMARK    6  A    between atoms: _11  and  _12
REMARK    7  A    between atoms: _17  and  _19
REMARK    8  A    between atoms: _19  and  _20
REMARK    9  A    between atoms: _19  and  _22
REMARK   10  A    between atoms: _25  and  _27
REMARK   11  A    between atoms: _27  and  _28
REMARK   12  A    between atoms: _30  and  _32
REMARK   13  A    between atoms: _32  and  _33
REMARK   14  A    between atoms: _32  and  _35
REMARK   15  A    between atoms: _35  and  _36
REMARK   16  A    between atoms: _39  and  _41
REMARK   17  A    between atoms: _41  and  _42
REMARK   18  A    between atoms: _45  and  _47
REMARK   19  A    between atoms: _47  and  _48
REMARK   20  A    between atoms: _47  and  _50
REMARK   21  A    between atoms: _50  and  _51
REMARK   22  A    between atoms: _51  and  _52
REMARK   23  A    between atoms: _52  and  _53
REMARK   24  A    between atoms: _53  and  _54
REMARK   25  A    between atoms: _58  and  _60
REMARK   26  A    between atoms: _60  and  _61
REMARK   27  A    between atoms: _60  and  _63
REMARK   28  A    between atoms: _63  and  _64
REMARK   29  A    between atoms: _67  and  _69
REMARK   30  A    between atoms: _69  and  _70
REMARK   31  A    between atoms: _72  and  _74
REMARK   32  A    between atoms: _74  and  _75
REMARK   33  A    between atoms: _74  and  _77
REMARK   34  A    between atoms: _77  and  _78
REMARK   35  A    between atoms: _83  and  _85
REMARK   36  A    between atoms: _85  and  _86
REMARK   37  A    between atoms: _85  and  _88
REMARK   38  A    between atoms: _88  and  _89
REMARK   39  A    between atoms: _92  and  _94
REMARK   40  A    between atoms: _94  and  _95
REMARK   41  A    between atoms: _94  and  _97
REMARK   42  A    between atoms: _97  and  _98
REMARK   43  A    between atoms: _103  and  _104
REMARK   44  A    between atoms: _106  and  _108
REMARK   45  A    between atoms: _108  and  _109
REMARK   46  A    between atoms: _108  and  _111
REMARK   47  A    between atoms: _111  and  _112
REMARK   48  A    between atoms: _117  and  _119
REMARK   49  A    between atoms: _119  and  _120
REMARK   50  A    between atoms: _119  and  _122
REMARK   51  A    between atoms: _122  and  _123
REMARK   52  A    between atoms: _126  and  _128
REMARK   53  A    between atoms: _128  and  _129
REMARK   54  A    between atoms: _128  and  _131
REMARK   55  A    between atoms: _131  and  _132
REMARK   56  A    between atoms: _135  and  _137
REMARK   57  A    between atoms: _137  and  _138
REMARK   58  A    between atoms: _137  and  _140
REMARK   59  A    between atoms: _140  and  _141
REMARK   60  A    between atoms: _144  and  _146
REMARK   61  A    between atoms: _146  and  _147
REMARK   62  A    between atoms: _146  and  _149
REMARK   63  A    between atoms: _149  and  _150
REMARK   64  A    between atoms: _153  and  _155
REMARK   65  A    between atoms: _155  and  _156
REMARK   66  A    between atoms: _155  and  _158
REMARK   67  A    between atoms: _158  and  _159
REMARK   68  A    between atoms: _161  and  _163
REMARK   69  A    between atoms: _163  and  _164
REMARK   70  A    between atoms: _166  and  _168
REMARK   71  A    between atoms: _168  and  _169
REMARK   72  A    between atoms: _171  and  _173
REMARK   73  A    between atoms: _173  and  _174
REMARK   74  A    between atoms: _173  and  _176
REMARK   75  A    between atoms: _176  and  _177
REMARK   76  A    between atoms: _182  and  _183
REMARK   77  A    between atoms: _185  and  _187
REMARK   78  A    between atoms: _187  and  _188
REMARK   79  A    between atoms: _187  and  _190
REMARK   80  A    between atoms: _190  and  _191
REMARK   81  A    between atoms: _191  and  _192
REMARK   82  A    between atoms: _197  and  _199
REMARK   83  A    between atoms: _199  and  _200
REMARK   84  A    between atoms: _203  and  _205
REMARK   85  A    between atoms: _205  and  _206
REMARK   86  A    between atoms: _205  and  _208
REMARK   87  A    between atoms: _208  and  _209
REMARK   88  A    between atoms: _209  and  _210
REMARK   89  A    between atoms: _212  and  _214
REMARK   90  A    between atoms: _214  and  _215
REMARK   91  A    between atoms: _218  and  _220
REMARK   92  A    between atoms: _220  and  _221
REMARK   93  A    between atoms: _220  and  _223
REMARK   94  A    between atoms: _223  and  _224
REMARK   95  A    between atoms: _230  and  _232
REMARK   96  A    between atoms: _232  and  _233
REMARK   97  A    between atoms: _232  and  _235
REMARK   98  A    between atoms: _235  and  _236
REMARK   99  A    between atoms: _239  and  _241
REMARK  100  A    between atoms: _241  and  _242
REMARK  101  A    between atoms: _241  and  _244
REMARK  102  A    between atoms: _244  and  _245
REMARK  103  A    between atoms: _245  and  _246
REMARK  104  A    between atoms: _249  and  _251
REMARK  105  A    between atoms: _251  and  _252
REMARK  106  A    between atoms: _251  and  _254
REMARK  107  A    between atoms: _256  and  _258
REMARK  108  A    between atoms: _258  and  _259
REMARK  109  A    between atoms: _258  and  _261
REMARK  110  A    between atoms: _261  and  _262
REMARK  111  A    between atoms: _265  and  _267
REMARK  112  A    between atoms: _267  and  _268
REMARK  113  A    between atoms: _267  and  _270
REMARK  114  A    between atoms: _270  and  _271
REMARK  115  A    between atoms: _273  and  _275
REMARK  116  A    between atoms: _275  and  _276
REMARK  117  A    between atoms: _275  and  _278
REMARK  118  A    between atoms: _278  and  _279
REMARK  119  A    between atoms: _282  and  _284
REMARK  120  A    between atoms: _284  and  _285
REMARK  121  A    between atoms: _284  and  _287
REMARK  122  A    between atoms: _287  and  _288
REMARK  123  A    between atoms: _288  and  _289
REMARK  124  A    between atoms: _294  and  _296
REMARK  125  A    between atoms: _296  and  _297
REMARK  126  A    between atoms: _296  and  _299
REMARK  127  A    between atoms: _299  and  _300
REMARK  128  A    between atoms: _300  and  _301
REMARK  129  A    between atoms: _306  and  _308
REMARK  130  A    between atoms: _308  and  _309
REMARK  131  A    between atoms: _311  and  _313
REMARK  132  A    between atoms: _313  and  _314
REMARK  133  A    between atoms: _313  and  _316
REMARK  134  A    between atoms: _316  and  _317
REMARK  135  A    between atoms: _319  and  _321
REMARK  136  A    between atoms: _321  and  _322
REMARK  137  A    between atoms: _321  and  _324
REMARK  138  A    between atoms: _324  and  _325
REMARK  139  A    between atoms: _325  and  _326
REMARK  140  A    between atoms: _326  and  _327
REMARK  141  A    between atoms: _336  and  _338
REMARK  142  A    between atoms: _338  and  _339
REMARK  143  A    between atoms: _342  and  _344
REMARK  144  A    between atoms: _344  and  _345
REMARK  145  A    between atoms: _344  and  _347
REMARK  146  A    between atoms: _350  and  _352
REMARK  147  A    between atoms: _352  and  _353
REMARK  148  A    between atoms: _355  and  _357
REMARK  149  A    between atoms: _357  and  _358
REMARK  150  A    between atoms: _360  and  _362
REMARK  151  A    between atoms: _362  and  _363
REMARK  152  A    between atoms: _362  and  _365
REMARK  153  A    between atoms: _365  and  _366
REMARK  154  A    between atoms: _369  and  _371
REMARK  155  A    between atoms: _371  and  _372
REMARK  156  A    between atoms: _375  and  _377
REMARK  157  A    between atoms: _377  and  _378
REMARK  158  A    between atoms: _377  and  _380
REMARK  159  A    between atoms: _383  and  _385
REMARK  160  A    between atoms: _385  and  _386
REMARK  161  A    between atoms: _388  and  _390
REMARK  162  A    between atoms: _390  and  _391
REMARK  163  A    between atoms: _390  and  _393
REMARK  164  A    between atoms: _393  and  _394
REMARK  165  A    between atoms: _394  and  _395
REMARK  166  A    between atoms: _398  and  _400
REMARK  167  A    between atoms: _400  and  _401
REMARK  168  A    between atoms: _400  and  _403
REMARK  169  A    between atoms: _403  and  _404
REMARK  170  A    between atoms: _404  and  _405
REMARK  171  A    between atoms: _407  and  _409
REMARK  172  A    between atoms: _409  and  _410
REMARK  173  A    between atoms: _409  and  _412
REMARK  174  A    between atoms: _412  and  _413
REMARK  175  A    between atoms: _418  and  _419
REMARK  176  A    between atoms: _421  and  _423
REMARK  177  A    between atoms: _423  and  _424
REMARK  178  A    between atoms: _423  and  _426
REMARK  179  A    between atoms: _426  and  _427
REMARK  180  A    between atoms: _430  and  _432
REMARK  181  A    between atoms: _432  and  _433
REMARK  182  A    between atoms: _432  and  _435
REMARK  183  A    between atoms: _435  and  _436
REMARK  184  A    between atoms: _436  and  _437
REMARK  185  A    between atoms: _439  and  _441
REMARK  186  A    between atoms: _441  and  _442
REMARK  187  A    between atoms: _444  and  _446
REMARK  188  A    between atoms: _446  and  _447
REMARK  189  A    between atoms: _446  and  _449
REMARK  190  A    between atoms: _452  and  _454
REMARK  191  A    between atoms: _454  and  _455
REMARK  192  A    between atoms: _457  and  _459
REMARK  193  A    between atoms: _459  and  _460
REMARK  194  A    between atoms: _459  and  _462
REMARK  195  A    between atoms: _462  and  _463
REMARK  196  A    between atoms: _469  and  _471
REMARK  197  A    between atoms: _471  and  _472
REMARK  198  A    between atoms: _471  and  _474
REMARK  199  A    between atoms: _474  and  _475
REMARK  200  A    between atoms: _478  and  _480
REMARK  201  A    between atoms: _480  and  _481
REMARK  202  A    between atoms: _480  and  _483
REMARK  203  A    between atoms: _485  and  _487
REMARK  204  A    between atoms: _487  and  _488
REMARK  205  A    between atoms: _487  and  _490
REMARK  206  A    between atoms: _493  and  _495
REMARK  207  A    between atoms: _495  and  _496
REMARK  208  A    between atoms: _495  and  _498
REMARK  209  A    between atoms: _498  and  _499
REMARK  210  A    between atoms: _502  and  _504
REMARK  211  A    between atoms: _504  and  _505
REMARK  212  A    between atoms: _504  and  _507
REMARK  213  A    between atoms: _507  and  _508
REMARK  214  A    between atoms: _508  and  _509
REMARK  215  A    between atoms: _509  and  _510
REMARK                            x       y       z     vdW  Elec       q    Type
REMARK                         _______ _______ _______ _____ _____    ______ ____
ROOT
ATOM      1  C   ASP A   2      16.457  10.818  13.866  0.00  0.00    +0.241 C 
ATOM      2  O   ASP A   2      17.345  11.554  14.335  0.00  0.00    -0.273 OA
ATOM      3  N   CYS A   3      15.703  11.057  12.784  0.00  0.00    -0.296 N 
ATOM      4  H   CYS A   3      14.992  10.363  12.478  0.00  0.00    +0.150 HD
ENDROOT
BRANCH   1   5
ATOM      5  CA  ASP A   2      16.126   9.556  14.631  0.00  0.00    +0.160 C 
BRANCH   5   7
ATOM      6  C   PHE A   1      17.618   7.741  15.296  0.00  0.00    +0.239 C 
ATOM      7  N   ASP A   2      17.364   9.047  15.221  0.00  0.00    -0.297 N 
ATOM      8  H   ASP A   2      18.064   9.721  15.591  0.00  0.00    +0.150 HD
ATOM      9  O   PHE A   1      16.772   6.865  15.035  0.00  0.00    -0.274 OA
BRANCH   6  10
ATOM     10  CA  PHE A   1      19.048   7.362  15.652  0.00  0.00    +0.149 C 
BRANCH  10  11
ATOM     11  N   PHE A   1      19.067   6.149  16.446  0.00  0.00    -0.238 NA
ATOM     12  H   PHE A   1      18.354   5.424  16.230  0.00  0.00    +0.142 HD
ENDBRANCH  10  11
BRANCH  10  13
ATOM     13  CB  PHE A   1      19.793   7.168  14.328  0.00  0.00    +0.053 C 
BRANCH  13  14
ATOM     14  CG  PHE A   1      21.267   6.866  14.472  0.00  0.00    -0.020 A 
ATOM     15  CD2 PHE A   1      22.194   7.877  14.626  0.00  0.00    -0.004 A 
ATOM     16  CE2 PHE A   1      23.535   7.592  14.779  0.00  0.00    -0.000 A 
ATOM     17  CZ  PHE A   1      23.996   6.289  14.781  0.00  0.00    -0.000 A 
ATOM     18  CE1 PHE A   1      23.065   5.268  14.693  0.00  0.00    -0.000 A 
ATOM     19  CD1 PHE A   1      21.719   5.548  14.489  0.00  0.00    -0.004 A 
ENDBRANCH  13  14
ENDBRANCH  10  13
ENDBRANCH   6  10
ENDBRANCH   5   7
BRANCH   5  20
ATOM     20  CB  ASP A   2      15.034   9.893  15.670  0.00  0.00    +0.143 C 
BRANCH  20  21
ATOM     21  CG  ASP A   2      15.268  11.260  16.300  0.00  0.00    +0.367 C 
ATOM     22  OD2 ASP A   2      16.038  11.350  17.295  0.00  0.00    -0.246 OA
ATOM     23  OD1 ASP A   2      14.693  12.255  15.820  0.00  0.00    -0.246 OA
ENDBRANCH  20  21
ENDBRANCH   5  20
ENDBRANCH   1   5
BRANCH   3  24
ATOM     24  CA  CYS A   3      15.885  12.288  12.044  0.00  0.00    +0.160 C 
BRANCH  24  25
ATOM     25  C   CYS A   3      14.711  12.579  11.137  0.00  0.00    +0.242 C 
ATOM     26  N   VAL A   4      14.358  13.832  10.918  0.00  0.00    -0.297 N 
ATOM     27  H   VAL A   4      14.793  14.604  11.462  0.00  0.00    +0.150 HD
ATOM     28  O   CYS A   3      14.199  11.624  10.549  0.00  0.00    -0.273 OA
BRANCH  26  29
ATOM     29  CA  VAL A   4      13.344  14.121   9.898  0.00  0.00    +0.149 C 
BRANCH  29  30
ATOM     30  C   VAL A   4      13.943  14.192   8.499  0.00  0.00    +0.241 C 
ATOM     31  N   LEU A   5      15.246  14.149   8.305  0.00  0.00    -0.298 N 
ATOM     32  H   LEU A   5      15.856  13.984   9.131  0.00  0.00    +0.150 HD
ATOM     33  O   VAL A   4      13.150  14.272   7.562  0.00  0.00    -0.273 OA
BRANCH  31  34
ATOM     34  CA  LEU A   5      15.892  14.319   6.999  0.00  0.00    +0.137 C 
BRANCH  34  35
ATOM     35  C   LEU A   5      15.251  13.453   5.928  0.00  0.00    +0.227 C 
ATOM     36  O   LEU A   5      14.810  13.995   4.890  0.00  0.00    -0.286 OA
ENDBRANCH  34  35
BRANCH  34  37
ATOM     37  CB  LEU A   5      17.391  14.020   7.079  0.00  0.00    +0.028 C 
BRANCH  37  38
ATOM     38  CG  LEU A   5      18.446  15.009   6.631  0.00  0.00    +0.002 C 
ATOM     39  CD2 LEU A   5      19.672  14.221   6.164  0.00  0.00    +0.000 C 
ATOM     40  CD1 LEU A   5      18.020  15.968   5.520  0.00  0.00    +0.000 C 
ENDBRANCH  37  38
ENDBRANCH  34  37
ENDBRANCH  31  34
ENDBRANCH  29  30
BRANCH  29  41
ATOM     41  CB  VAL A   4      12.613  15.434  10.201  0.00  0.00    +0.027 C 
ATOM     42  CG2 VAL A   4      11.986  15.366  11.587  0.00  0.00    +0.002 C 
ATOM     43  CG1 VAL A   4      13.576  16.616  10.093  0.00  0.00    +0.002 C 
ENDBRANCH  29  41
ENDBRANCH  26  29
ENDBRANCH  24  25
BRANCH  24  44
ATOM     44  CB  CYS A   3      17.171  12.135  11.207  0.00  0.00    +0.098 C 
ATOM     45  SG  CYS A   3      17.803  13.695  10.551  0.00  0.00    -0.080 S 
ENDBRANCH  24  44
ENDBRANCH   3  24
TORSDOF 18
REMARK  Name = ../refined-set-2016/3ge7/3ge7_pocket.pdb
REMARK  215 active torsions:
REMARK  status: ('A' for Active; 'I' for Inactive)
REMARK    1  A    between atoms: _1  and  _3
REMARK    2  A    between atoms: _3  and  _4
REMARK    3  A    between atoms: _3  and  _6
REMARK    4  A    between atoms: _6  and  _7
REMARK    5  A    between atoms: _7  and  _8
REMARK    6  A    between atoms: _11  and  _12
REMARK    7  A    between atoms: _17  and  _19
REMARK    8  A    between atoms: _19  and  _20
REMARK    9  A    between atoms: _19  and  _22
REMARK   10  A    between atoms: _25  and  _27
REMARK   11  A    between atoms: _27  and  _28
REMARK   12  A    between atoms: _30  and  _32
REMARK   13  A    between atoms: _32  and  _33
REMARK   14  A    between atoms: _32  and  _35
REMARK   15  A    between atoms: _35  and  _36
REMARK   16  A    between atoms: _39  and  _41
REMARK   17  A    between atoms: _41  and  _42
REMARK   18  A    between atoms: _45  and  _47
REMARK   19  A    between atoms: _47  and  _48
REMARK   20  A    between atoms: _47  and  _50
REMARK   21  A    between atoms: _50  and  _51
REMARK   22  A    between atoms: _51  and  _52
REMARK   23  A    between atoms: _52  and  _53
REMARK   24  A    between atoms: _53  and  _54
REMARK   25  A    between atoms: _58  and  _60
REMARK   26  A    between atoms: _60  and  _61
REMARK   27  A    between atoms: _60  and  _63
REMARK   28  A    between atoms: _63  and  _64
REMARK   29  A    between atoms: _67  and  _69
REMARK   30  A    between atoms: _69  and  _70
REMARK   31  A    between atoms: _72  and  _74
REMARK   32  A    between atoms: _74  and  _75
REMARK   33  A    between atoms: _74  and  _77
REMARK   34  A    between atoms: _77  and  _78
REMARK   35  A    between atoms: _83  and  _85
REMARK   36  A    between atoms: _85  and  _86
REMARK   37  A    between atoms: _85  and  _88
REMARK   38  A    between atoms: _88  and  _89
REMARK   39  A    between atoms: _92  and  _94
REMARK   40  A    between atoms: _94  and  _95
REMARK   41  A    between atoms: _94  and  _97
REMARK   42  A    between atoms: _97  and  _98
REMARK   43  A    between atoms: _103  and  _104
REMARK   44  A    between atoms: _106  and  _108
REMARK   45  A    between atoms: _108  and  _109
REMARK   46  A    between atoms: _108  and  _111
REMARK   47  A    between atoms: _111  and  _112
REMARK   48  A    between atoms: _117  and  _119
REMARK   49  A    between atoms: _119  and  _120
REMARK   50  A    between atoms: _119  and  _122
REMARK   51  A    between atoms: _122  and  _123
REMARK   52  A    between atoms: _126  and  _128
REMARK   53  A    between atoms: _128  and  _129
REMARK   54  A    between atoms: _128  and  _131
REMARK   55  A    between atoms: _131  and  _132
REMARK   56  A    between atoms: _135  and  _137
REMARK   57  A    between atoms: _137  and  _138
REMARK   58  A    between atoms: _137  and  _140
REMARK   59  A    between atoms: _140  and  _141
REMARK   60  A    between atoms: _144  and  _146
REMARK   61  A    between atoms: _146  and  _147
REMARK   62  A    between atoms: _146  and  _149
REMARK   63  A    between atoms: _149  and  _150
REMARK   64  A    between atoms: _153  and  _155
REMARK   65  A    between atoms: _155  and  _156
REMARK   66  A    between atoms: _155  and  _158
REMARK   67  A    between atoms: _158  and  _159
REMARK   68  A    between atoms: _161  and  _163
REMARK   69  A    between atoms: _163  and  _164
REMARK   70  A    between atoms: _166  and  _168
REMARK   71  A    between atoms: _168  and  _169
REMARK   72  A    between atoms: _171  and  _173
REMARK   73  A    between atoms: _173  and  _174
REMARK   74  A    between atoms: _173  and  _176
REMARK   75  A    between atoms: _176  and  _177
REMARK   76  A    between atoms: _182  and  _183
REMARK   77  A    between atoms: _185  and  _187
REMARK   78  A    between atoms: _187  and  _188
REMARK   79  A    between atoms: _187  and  _190
REMARK   80  A    between atoms: _190  and  _191
REMARK   81  A    between atoms: _191  and  _192
REMARK   82  A    between atoms: _197  and  _199
REMARK   83  A    between atoms: _199  and  _200
REMARK   84  A    between atoms: _203  and  _205
REMARK   85  A    between atoms: _205  and  _206
REMARK   86  A    between atoms: _205  and  _208
REMARK   87  A    between atoms: _208  and  _209
REMARK   88  A    between atoms: _209  and  _210
REMARK   89  A    between atoms: _212  and  _214
REMARK   90  A    between atoms: _214  and  _215
REMARK   91  A    between atoms: _218  and  _220
REMARK   92  A    between atoms: _220  and  _221
REMARK   93  A    between atoms: _220  and  _223
REMARK   94  A    between atoms: _223  and  _224
REMARK   95  A    between atoms: _230  and  _232
REMARK   96  A    between atoms: _232  and  _233
REMARK   97  A    between atoms: _232  and  _235
REMARK   98  A    between atoms: _235  and  _236
REMARK   99  A    between atoms: _239  and  _241
REMARK  100  A    between atoms: _241  and  _242
REMARK  101  A    between atoms: _241  and  _244
REMARK  102  A    between atoms: _244  and  _245
REMARK  103  A    between atoms: _245  and  _246
REMARK  104  A    between atoms: _249  and  _251
REMARK  105  A    between atoms: _251  and  _252
REMARK  106  A    between atoms: _251  and  _254
REMARK  107  A    between atoms: _256  and  _258
REMARK  108  A    between atoms: _258  and  _259
REMARK  109  A    between atoms: _258  and  _261
REMARK  110  A    between atoms: _261  and  _262
REMARK  111  A    between atoms: _265  and  _267
REMARK  112  A    between atoms: _267  and  _268
REMARK  113  A    between atoms: _267  and  _270
REMARK  114  A    between atoms: _270  and  _271
REMARK  115  A    between atoms: _273  and  _275
REMARK  116  A    between atoms: _275  and  _276
REMARK  117  A    between atoms: _275  and  _278
REMARK  118  A    between atoms: _278  and  _279
REMARK  119  A    between atoms: _282  and  _284
REMARK  120  A    between atoms: _284  and  _285
REMARK  121  A    between atoms: _284  and  _287
REMARK  122  A    between atoms: _287  and  _288
REMARK  123  A    between atoms: _288  and  _289
REMARK  124  A    between atoms: _294  and  _296
REMARK  125  A    between atoms: _296  and  _297
REMARK  126  A    between atoms: _296  and  _299
REMARK  127  A    between atoms: _299  and  _300
REMARK  128  A    between atoms: _300  and  _301
REMARK  129  A    between atoms: _306  and  _308
REMARK  130  A    between atoms: _308  and  _309
REMARK  131  A    between atoms: _311  and  _313
REMARK  132  A    between atoms: _313  and  _314
REMARK  133  A    between atoms: _313  and  _316
REMARK  134  A    between atoms: _316  and  _317
REMARK  135  A    between atoms: _319  and  _321
REMARK  136  A    between atoms: _321  and  _322
REMARK  137  A    between atoms: _321  and  _324
REMARK  138  A    between atoms: _324  and  _325
REMARK  139  A    between atoms: _325  and  _326
REMARK  140  A    between atoms: _326  and  _327
REMARK  141  A    between atoms: _336  and  _338
REMARK  142  A    between atoms: _338  and  _339
REMARK  143  A    between atoms: _342  and  _344
REMARK  144  A    between atoms: _344  and  _345
REMARK  145  A    between atoms: _344  and  _347
REMARK  146  A    between atoms: _350  and  _352
REMARK  147  A    between atoms: _352  and  _353
REMARK  148  A    between atoms: _355  and  _357
REMARK  149  A    between atoms: _357  and  _358
REMARK  150  A    between atoms: _360  and  _362
REMARK  151  A    between atoms: _362  and  _363
REMARK  152  A    between atoms: _362  and  _365
REMARK  153  A    between atoms: _365  and  _366
REMARK  154  A    between atoms: _369  and  _371
REMARK  155  A    between atoms: _371  and  _372
REMARK  156  A    between atoms: _375  and  _377
REMARK  157  A    between atoms: _377  and  _378
REMARK  158  A    between atoms: _377  and  _380
REMARK  159  A    between atoms: _383  and  _385
REMARK  160  A    between atoms: _385  and  _386
REMARK  161  A    between atoms: _388  and  _390
REMARK  162  A    between atoms: _390  and  _391
REMARK  163  A    between atoms: _390  and  _393
REMARK  164  A    between atoms: _393  and  _394
REMARK  165  A    between atoms: _394  and  _395
REMARK  166  A    between atoms: _398  and  _400
REMARK  167  A    between atoms: _400  and  _401
REMARK  168  A    between atoms: _400  and  _403
REMARK  169  A    between atoms: _403  and  _404
REMARK  170  A    between atoms: _404  and  _405
REMARK  171  A    between atoms: _407  and  _409
REMARK  172  A    between atoms: _409  and  _410
REMARK  173  A    between atoms: _409  and  _412
REMARK  174  A    between atoms: _412  and  _413
REMARK  175  A    between atoms: _418  and  _419
REMARK  176  A    between atoms: _421  and  _423
REMARK  177  A    between atoms: _423  and  _424
REMARK  178  A    between atoms: _423  and  _426
REMARK  179  A    between atoms: _426  and  _427
REMARK  180  A    between atoms: _430  and  _432
REMARK  181  A    between atoms: _432  and  _433
REMARK  182  A    between atoms: _432  and  _435
REMARK  183  A    between atoms: _435  and  _436
REMARK  184  A    between atoms: _436  and  _437
REMARK  185  A    between atoms: _439  and  _441
REMARK  186  A    between atoms: _441  and  _442
REMARK  187  A    between atoms: _444  and  _446
REMARK  188  A    between atoms: _446  and  _447
REMARK  189  A    between atoms: _446  and  _449
REMARK  190  A    between atoms: _452  and  _454
REMARK  191  A    between atoms: _454  and  _455
REMARK  192  A    between atoms: _457  and  _459
REMARK  193  A    between atoms: _459  and  _460
REMARK  194  A    between atoms: _459  and  _462
REMARK  195  A    between atoms: _462  and  _463
REMARK  196  A    between atoms: _469  and  _471
REMARK  197  A    between atoms: _471  and  _472
REMARK  198  A    between atoms: _471  and  _474
REMARK  199  A    between atoms: _474  and  _475
REMARK  200  A    between atoms: _478  and  _480
REMARK  201  A    between atoms: _480  and  _481
REMARK  202  A    between atoms: _480  and  _483
REMARK  203  A    between atoms: _485  and  _487
REMARK  204  A    between atoms: _487  and  _488
REMARK  205  A    between atoms: _487  and  _490
REMARK  206  A    between atoms: _493  and  _495
REMARK  207  A    between atoms: _495  and  _496
REMARK  208  A    between atoms: _495  and  _498
REMARK  209  A    between atoms: _498  and  _499
REMARK  210  A    between atoms: _502  and  _504
REMARK  211  A    between atoms: _504  and  _505
REMARK  212  A    between atoms: _504  and  _507
REMARK  213  A    between atoms: _507  and  _508
REMARK  214  A    between atoms: _508  and  _509
REMARK  215  A    between atoms: _509  and  _510
REMARK                            x       y       z     vdW  Elec       q    Type
REMARK                         _______ _______ _______ _____ _____    ______ ____
ROOT
ATOM      1  NE  ARG A   1      13.149  19.273   7.600  0.00  0.00    -0.265 N 
ATOM      2  CZ  ARG A   1      13.396  19.738   8.819  0.00  0.00    +0.342 C 
ATOM      3  NH2 ARG A   1      12.412  20.309   9.502  0.00  0.00    -0.292 N 
ATOM      4 HH21 ARG A   1      12.589  20.678  10.458  0.00  0.00    +0.255 HD
ATOM      5 HH22 ARG A   1      11.464  20.387   9.081  0.00  0.00    +0.255 HD
ATOM      6  NH1 ARG A   1      14.620  19.615   9.316  0.00  0.00    -0.292 N 
ATOM      7 HH11 ARG A   1      14.833  19.973  10.269  0.00  0.00    +0.255 HD
ATOM      8 HH12 ARG A   1      15.367  19.161   8.753  0.00  0.00    +0.255 HD
ATOM      9  HE  ARG A   1      13.930  18.828   7.078  0.00  0.00    +0.259 HD
ENDROOT
BRANCH   1  10
ATOM     10  CD  ARG A   1      11.841  19.351   6.949  0.00  0.00    +0.174 C 
BRANCH  10  11
ATOM     11  CG  ARG A   1      11.809  18.442   5.727  0.00  0.00    +0.045 C 
BRANCH  11  12
ATOM     12  CB  ARG A   1      11.793  16.971   6.141  0.00  0.00    +0.029 C 
BRANCH  12  13
ATOM     13  CA  ARG A   1      11.155  16.111   5.038  0.00  0.00    +0.133 C 
BRANCH  13  14
ATOM     14  N   ARG A   1      11.219  14.718   5.473  0.00  0.00    -0.239 NA
ATOM     15  H   ARG A   1      11.660  14.488   6.387  0.00  0.00    +0.142 HD
ENDBRANCH  13  14
BRANCH  13  16
ATOM     16  C   ARG A   1      11.870  16.383   3.739  0.00  0.00    +0.224 C 
ATOM     17  O   ARG A   1      11.320  16.974   2.793  0.00  0.00    -0.287 OA
ENDBRANCH  13  16
ENDBRANCH  12  13
ENDBRANCH  11  12
ENDBRANCH  10  11
ENDBRANCH   1  10
TORSDOF 6
REMARK  Name = ../refined-set-2016/3ge7/3ge7_pocket.pdb
REMARK  215 active torsions:
REMARK  status: ('A' for Active; 'I' for Inactive)
REMARK    1  A    between atoms: _1  and  _3
REMARK    2  A    between atoms: _3  and  _4
REMARK    3  A    between atoms: _3  and  _6
REMARK    4  A    between atoms: _6  and  _7
REMARK    5  A    between atoms: _7  and  _8
REMARK    6  A    between atoms: _11  and  _12
REMARK    7  A    between atoms: _17  and  _19
REMARK    8  A    between atoms: _19  and  _20
REMARK    9  A    between atoms: _19  and  _22
REMARK   10  A    between atoms: _25  and  _27
REMARK   11  A    between atoms: _27  and  _28
REMARK   12  A    between atoms: _30  and  _32
REMARK   13  A    between atoms: _32  and  _33
REMARK   14  A    between atoms: _32  and  _35
REMARK   15  A    between atoms: _35  and  _36
REMARK   16  A    between atoms: _39  and  _41
REMARK   17  A    between atoms: _41  and  _42
REMARK   18  A    between atoms: _45  and  _47
REMARK   19  A    between atoms: _47  and  _48
REMARK   20  A    between atoms: _47  and  _50
REMARK   21  A    between atoms: _50  and  _51
REMARK   22  A    between atoms: _51  and  _52
REMARK   23  A    between atoms: _52  and  _53
REMARK   24  A    between atoms: _53  and  _54
REMARK   25  A    between atoms: _58  and  _60
REMARK   26  A    between atoms: _60  and  _61
REMARK   27  A    between atoms: _60  and  _63
REMARK   28  A    between atoms: _63  and  _64
REMARK   29  A    between atoms: _67  and  _69
REMARK   30  A    between atoms: _69  and  _70
REMARK   31  A    between atoms: _72  and  _74
REMARK   32  A    between atoms: _74  and  _75
REMARK   33  A    between atoms: _74  and  _77
REMARK   34  A    between atoms: _77  and  _78
REMARK   35  A    between atoms: _83  and  _85
REMARK   36  A    between atoms: _85  and  _86
REMARK   37  A    between atoms: _85  and  _88
REMARK   38  A    between atoms: _88  and  _89
REMARK   39  A    between atoms: _92  and  _94
REMARK   40  A    between atoms: _94  and  _95
REMARK   41  A    between atoms: _94  and  _97
REMARK   42  A    between atoms: _97  and  _98
REMARK   43  A    between atoms: _103  and  _104
REMARK   44  A    between atoms: _106  and  _108
REMARK   45  A    between atoms: _108  and  _109
REMARK   46  A    between atoms: _108  and  _111
REMARK   47  A    between atoms: _111  and  _112
REMARK   48  A    between atoms: _117  and  _119
REMARK   49  A    between atoms: _119  and  _120
REMARK   50  A    between atoms: _119  and  _122
REMARK   51  A    between atoms: _122  and  _123
REMARK   52  A    between atoms: _126  and  _128
REMARK   53  A    between atoms: _128  and  _129
REMARK   54  A    between atoms: _128  and  _131
REMARK   55  A    between atoms: _131  and  _132
REMARK   56  A    between atoms: _135  and  _137
REMARK   57  A    between atoms: _137  and  _138
REMARK   58  A    between atoms: _137  and  _140
REMARK   59  A    between atoms: _140  and  _141
REMARK   60  A    between atoms: _144  and  _146
REMARK   61  A    between atoms: _146  and  _147
REMARK   62  A    between atoms: _146  and  _149
REMARK   63  A    between atoms: _149  and  _150
REMARK   64  A    between atoms: _153  and  _155
REMARK   65  A    between atoms: _155  and  _156
REMARK   66  A    between atoms: _155  and  _158
REMARK   67  A    between atoms: _158  and  _159
REMARK   68  A    between atoms: _161  and  _163
REMARK   69  A    between atoms: _163  and  _164
REMARK   70  A    between atoms: _166  and  _168
REMARK   71  A    between atoms: _168  and  _169
REMARK   72  A    between atoms: _171  and  _173
REMARK   73  A    between atoms: _173  and  _174
REMARK   74  A    between atoms: _173  and  _176
REMARK   75  A    between atoms: _176  and  _177
REMARK   76  A    between atoms: _182  and  _183
REMARK   77  A    between atoms: _185  and  _187
REMARK   78  A    between atoms: _187  and  _188
REMARK   79  A    between atoms: _187  and  _190
REMARK   80  A    between atoms: _190  and  _191
REMARK   81  A    between atoms: _191  and  _192
REMARK   82  A    between atoms: _197  and  _199
REMARK   83  A    between atoms: _199  and  _200
REMARK   84  A    between atoms: _203  and  _205
REMARK   85  A    between atoms: _205  and  _206
REMARK   86  A    between atoms: _205  and  _208
REMARK   87  A    between atoms: _208  and  _209
REMARK   88  A    between atoms: _209  and  _210
REMARK   89  A    between atoms: _212  and  _214
REMARK   90  A    between atoms: _214  and  _215
REMARK   91  A    between atoms: _218  and  _220
REMARK   92  A    between atoms: _220  and  _221
REMARK   93  A    between atoms: _220  and  _223
REMARK   94  A    between atoms: _223  and  _224
REMARK   95  A    between atoms: _230  and  _232
REMARK   96  A    between atoms: _232  and  _233
REMARK   97  A    between atoms: _232  and  _235
REMARK   98  A    between atoms: _235  and  _236
REMARK   99  A    between atoms: _239  and  _241
REMARK  100  A    between atoms: _241  and  _242
REMARK  101  A    between atoms: _241  and  _244
REMARK  102  A    between atoms: _244  and  _245
REMARK  103  A    between atoms: _245  and  _246
REMARK  104  A    between atoms: _249  and  _251
REMARK  105  A    between atoms: _251  and  _252
REMARK  106  A    between atoms: _251  and  _254
REMARK  107  A    between atoms: _256  and  _258
REMARK  108  A    between atoms: _258  and  _259
REMARK  109  A    between atoms: _258  and  _261
REMARK  110  A    between atoms: _261  and  _262
REMARK  111  A    between atoms: _265  and  _267
REMARK  112  A    between atoms: _267  and  _268
REMARK  113  A    between atoms: _267  and  _270
REMARK  114  A    between atoms: _270  and  _271
REMARK  115  A    between atoms: _273  and  _275
REMARK  116  A    between atoms: _275  and  _276
REMARK  117  A    between atoms: _275  and  _278
REMARK  118  A    between atoms: _278  and  _279
REMARK  119  A    between atoms: _282  and  _284
REMARK  120  A    between atoms: _284  and  _285
REMARK  121  A    between atoms: _284  and  _287
REMARK  122  A    between atoms: _287  and  _288
REMARK  123  A    between atoms: _288  and  _289
REMARK  124  A    between atoms: _294  and  _296
REMARK  125  A    between atoms: _296  and  _297
REMARK  126  A    between atoms: _296  and  _299
REMARK  127  A    between atoms: _299  and  _300
REMARK  128  A    between atoms: _300  and  _301
REMARK  129  A    between atoms: _306  and  _308
REMARK  130  A    between atoms: _308  and  _309
REMARK  131  A    between atoms: _311  and  _313
REMARK  132  A    between atoms: _313  and  _314
REMARK  133  A    between atoms: _313  and  _316
REMARK  134  A    between atoms: _316  and  _317
REMARK  135  A    between atoms: _319  and  _321
REMARK  136  A    between atoms: _321  and  _322
REMARK  137  A    between atoms: _321  and  _324
REMARK  138  A    between atoms: _324  and  _325
REMARK  139  A    between atoms: _325  and  _326
REMARK  140  A    between atoms: _326  and  _327
REMARK  141  A    between atoms: _336  and  _338
REMARK  142  A    between atoms: _338  and  _339
REMARK  143  A    between atoms: _342  and  _344
REMARK  144  A    between atoms: _344  and  _345
REMARK  145  A    between atoms: _344  and  _347
REMARK  146  A    between atoms: _350  and  _352
REMARK  147  A    between atoms: _352  and  _353
REMARK  148  A    between atoms: _355  and  _357
REMARK  149  A    between atoms: _357  and  _358
REMARK  150  A    between atoms: _360  and  _362
REMARK  151  A    between atoms: _362  and  _363
REMARK  152  A    between atoms: _362  and  _365
REMARK  153  A    between atoms: _365  and  _366
REMARK  154  A    between atoms: _369  and  _371
REMARK  155  A    between atoms: _371  and  _372
REMARK  156  A    between atoms: _375  and  _377
REMARK  157  A    between atoms: _377  and  _378
REMARK  158  A    between atoms: _377  and  _380
REMARK  159  A    between atoms: _383  and  _385
REMARK  160  A    between atoms: _385  and  _386
REMARK  161  A    between atoms: _388  and  _390
REMARK  162  A    between atoms: _390  and  _391
REMARK  163  A    between atoms: _390  and  _393
REMARK  164  A    between atoms: _393  and  _394
REMARK  165  A    between atoms: _394  and  _395
REMARK  166  A    between atoms: _398  and  _400
REMARK  167  A    between atoms: _400  and  _401
REMARK  168  A    between atoms: _400  and  _403
REMARK  169  A    between atoms: _403  and  _404
REMARK  170  A    between atoms: _404  and  _405
REMARK  171  A    between atoms: _407  and  _409
REMARK  172  A    between atoms: _409  and  _410
REMARK  173  A    between atoms: _409  and  _412
REMARK  174  A    between atoms: _412  and  _413
REMARK  175  A    between atoms: _418  and  _419
REMARK  176  A    between atoms: _421  and  _423
REMARK  177  A    between atoms: _423  and  _424
REMARK  178  A    between atoms: _423  and  _426
REMARK  179  A    between atoms: _426  and  _427
REMARK  180  A    between atoms: _430  and  _432
REMARK  181  A    between atoms: _432  and  _433
REMARK  182  A    between atoms: _432  and  _435
REMARK  183  A    between atoms: _435  and  _436
REMARK  184  A    between atoms: _436  and  _437
REMARK  185  A    between atoms: _439  and  _441
REMARK  186  A    between atoms: _441  and  _442
REMARK  187  A    between atoms: _444  and  _446
REMARK  188  A    between atoms: _446  and  _447
REMARK  189  A    between atoms: _446  and  _449
REMARK  190  A    between atoms: _452  and  _454
REMARK  191  A    between atoms: _454  and  _455
REMARK  192  A    between atoms: _457  and  _459
REMARK  193  A    between atoms: _459  and  _460
REMARK  194  A    between atoms: _459  and  _462
REMARK  195  A    between atoms: _462  and  _463
REMARK  196  A    between atoms: _469  and  _471
REMARK  197  A    between atoms: _471  and  _472
REMARK  198  A    between atoms: _471  and  _474
REMARK  199  A    between atoms: _474  and  _475
REMARK  200  A    between atoms: _478  and  _480
REMARK  201  A    between atoms: _480  and  _481
REMARK  202  A    between atoms: _480  and  _483
REMARK  203  A    between atoms: _485  and  _487
REMARK  204  A    between atoms: _487  and  _488
REMARK  205  A    between atoms: _487  and  _490
REMARK  206  A    between atoms: _493  and  _495
REMARK  207  A    between atoms: _495  and  _496
REMARK  208  A    between atoms: _495  and  _498
REMARK  209  A    between atoms: _498  and  _499
REMARK  210  A    between atoms: _502  and  _504
REMARK  211  A    between atoms: _504  and  _505
REMARK  212  A    between atoms: _504  and  _507
REMARK  213  A    between atoms: _507  and  _508
REMARK  214  A    between atoms: _508  and  _509
REMARK  215  A    between atoms: _509  and  _510
REMARK                            x       y       z     vdW  Elec       q    Type
REMARK                         _______ _______ _______ _____ _____    ______ ____
ROOT
ATOM      1  O   HOH     1      21.900  15.216  20.166  0.00  0.00    +0.000 OA
ENDROOT
TORSDOF 0
REMARK  Name = ../refined-set-2016/3ge7/3ge7_pocket.pdb
REMARK  215 active torsions:
REMARK  status: ('A' for Active; 'I' for Inactive)
REMARK    1  A    between atoms: _1  and  _3
REMARK    2  A    between atoms: _3  and  _4
REMARK    3  A    between atoms: _3  and  _6
REMARK    4  A    between atoms: _6  and  _7
REMARK    5  A    between atoms: _7  and  _8
REMARK    6  A    between atoms: _11  and  _12
REMARK    7  A    between atoms: _17  and  _19
REMARK    8  A    between atoms: _19  and  _20
REMARK    9  A    between atoms: _19  and  _22
REMARK   10  A    between atoms: _25  and  _27
REMARK   11  A    between atoms: _27  and  _28
REMARK   12  A    between atoms: _30  and  _32
REMARK   13  A    between atoms: _32  and  _33
REMARK   14  A    between atoms: _32  and  _35
REMARK   15  A    between atoms: _35  and  _36
REMARK   16  A    between atoms: _39  and  _41
REMARK   17  A    between atoms: _41  and  _42
REMARK   18  A    between atoms: _45  and  _47
REMARK   19  A    between atoms: _47  and  _48
REMARK   20  A    between atoms: _47  and  _50
REMARK   21  A    between atoms: _50  and  _51
REMARK   22  A    between atoms: _51  and  _52
REMARK   23  A    between atoms: _52  and  _53
REMARK   24  A    between atoms: _53  and  _54
REMARK   25  A    between atoms: _58  and  _60
REMARK   26  A    between atoms: _60  and  _61
REMARK   27  A    between atoms: _60  and  _63
REMARK   28  A    between atoms: _63  and  _64
REMARK   29  A    between atoms: _67  and  _69
REMARK   30  A    between atoms: _69  and  _70
REMARK   31  A    between atoms: _72  and  _74
REMARK   32  A    between atoms: _74  and  _75
REMARK   33  A    between atoms: _74  and  _77
REMARK   34  A    between atoms: _77  and  _78
REMARK   35  A    between atoms: _83  and  _85
REMARK   36  A    between atoms: _85  and  _86
REMARK   37  A    between atoms: _85  and  _88
REMARK   38  A    between atoms: _88  and  _89
REMARK   39  A    between atoms: _92  and  _94
REMARK   40  A    between atoms: _94  and  _95
REMARK   41  A    between atoms: _94  and  _97
REMARK   42  A    between atoms: _97  and  _98
REMARK   43  A    between atoms: _103  and  _104
REMARK   44  A    between atoms: _106  and  _108
REMARK   45  A    between atoms: _108  and  _109
REMARK   46  A    between atoms: _108  and  _111
REMARK   47  A    between atoms: _111  and  _112
REMARK   48  A    between atoms: _117  and  _119
REMARK   49  A    between atoms: _119  and  _120
REMARK   50  A    between atoms: _119  and  _122
REMARK   51  A    between atoms: _122  and  _123
REMARK   52  A    between atoms: _126  and  _128
REMARK   53  A    between atoms: _128  and  _129
REMARK   54  A    between atoms: _128  and  _131
REMARK   55  A    between atoms: _131  and  _132
REMARK   56  A    between atoms: _135  and  _137
REMARK   57  A    between atoms: _137  and  _138
REMARK   58  A    between atoms: _137  and  _140
REMARK   59  A    between atoms: _140  and  _141
REMARK   60  A    between atoms: _144  and  _146
REMARK   61  A    between atoms: _146  and  _147
REMARK   62  A    between atoms: _146  and  _149
REMARK   63  A    between atoms: _149  and  _150
REMARK   64  A    between atoms: _153  and  _155
REMARK   65  A    between atoms: _155  and  _156
REMARK   66  A    between atoms: _155  and  _158
REMARK   67  A    between atoms: _158  and  _159
REMARK   68  A    between atoms: _161  and  _163
REMARK   69  A    between atoms: _163  and  _164
REMARK   70  A    between atoms: _166  and  _168
REMARK   71  A    between atoms: _168  and  _169
REMARK   72  A    between atoms: _171  and  _173
REMARK   73  A    between atoms: _173  and  _174
REMARK   74  A    between atoms: _173  and  _176
REMARK   75  A    between atoms: _176  and  _177
REMARK   76  A    between atoms: _182  and  _183
REMARK   77  A    between atoms: _185  and  _187
REMARK   78  A    between atoms: _187  and  _188
REMARK   79  A    between atoms: _187  and  _190
REMARK   80  A    between atoms: _190  and  _191
REMARK   81  A    between atoms: _191  and  _192
REMARK   82  A    between atoms: _197  and  _199
REMARK   83  A    between atoms: _199  and  _200
REMARK   84  A    between atoms: _203  and  _205
REMARK   85  A    between atoms: _205  and  _206
REMARK   86  A    between atoms: _205  and  _208
REMARK   87  A    between atoms: _208  and  _209
REMARK   88  A    between atoms: _209  and  _210
REMARK   89  A    between atoms: _212  and  _214
REMARK   90  A    between atoms: _214  and  _215
REMARK   91  A    between atoms: _218  and  _220
REMARK   92  A    between atoms: _220  and  _221
REMARK   93  A    between atoms: _220  and  _223
REMARK   94  A    between atoms: _223  and  _224
REMARK   95  A    between atoms: _230  and  _232
REMARK   96  A    between atoms: _232  and  _233
REMARK   97  A    between atoms: _232  and  _235
REMARK   98  A    between atoms: _235  and  _236
REMARK   99  A    between atoms: _239  and  _241
REMARK  100  A    between atoms: _241  and  _242
REMARK  101  A    between atoms: _241  and  _244
REMARK  102  A    between atoms: _244  and  _245
REMARK  103  A    between atoms: _245  and  _246
REMARK  104  A    between atoms: _249  and  _251
REMARK  105  A    between atoms: _251  and  _252
REMARK  106  A    between atoms: _251  and  _254
REMARK  107  A    between atoms: _256  and  _258
REMARK  108  A    between atoms: _258  and  _259
REMARK  109  A    between atoms: _258  and  _261
REMARK  110  A    between atoms: _261  and  _262
REMARK  111  A    between atoms: _265  and  _267
REMARK  112  A    between atoms: _267  and  _268
REMARK  113  A    between atoms: _267  and  _270
REMARK  114  A    between atoms: _270  and  _271
REMARK  115  A    between atoms: _273  and  _275
REMARK  116  A    between atoms: _275  and  _276
REMARK  117  A    between atoms: _275  and  _278
REMARK  118  A    between atoms: _278  and  _279
REMARK  119  A    between atoms: _282  and  _284
REMARK  120  A    between atoms: _284  and  _285
REMARK  121  A    between atoms: _284  and  _287
REMARK  122  A    between atoms: _287  and  _288
REMARK  123  A    between atoms: _288  and  _289
REMARK  124  A    between atoms: _294  and  _296
REMARK  125  A    between atoms: _296  and  _297
REMARK  126  A    between atoms: _296  and  _299
REMARK  127  A    between atoms: _299  and  _300
REMARK  128  A    between atoms: _300  and  _301
REMARK  129  A    between atoms: _306  and  _308
REMARK  130  A    between atoms: _308  and  _309
REMARK  131  A    between atoms: _311  and  _313
REMARK  132  A    between atoms: _313  and  _314
REMARK  133  A    between atoms: _313  and  _316
REMARK  134  A    between atoms: _316  and  _317
REMARK  135  A    between atoms: _319  and  _321
REMARK  136  A    between atoms: _321  and  _322
REMARK  137  A    between atoms: _321  and  _324
REMARK  138  A    between atoms: _324  and  _325
REMARK  139  A    between atoms: _325  and  _326
REMARK  140  A    between atoms: _326  and  _327
REMARK  141  A    between atoms: _336  and  _338
REMARK  142  A    between atoms: _338  and  _339
REMARK  143  A    between atoms: _342  and  _344
REMARK  144  A    between atoms: _344  and  _345
REMARK  145  A    between atoms: _344  and  _347
REMARK  146  A    between atoms: _350  and  _352
REMARK  147  A    between atoms: _352  and  _353
REMARK  148  A    between atoms: _355  and  _357
REMARK  149  A    between atoms: _357  and  _358
REMARK  150  A    between atoms: _360  and  _362
REMARK  151  A    between atoms: _362  and  _363
REMARK  152  A    between atoms: _362  and  _365
REMARK  153  A    between atoms: _365  and  _366
REMARK  154  A    between atoms: _369  and  _371
REMARK  155  A    between atoms: _371  and  _372
REMARK  156  A    between atoms: _375  and  _377
REMARK  157  A    between atoms: _377  and  _378
REMARK  158  A    between atoms: _377  and  _380
REMARK  159  A    between atoms: _383  and  _385
REMARK  160  A    between atoms: _385  and  _386
REMARK  161  A    between atoms: _388  and  _390
REMARK  162  A    between atoms: _390  and  _391
REMARK  163  A    between atoms: _390  and  _393
REMARK  164  A    between atoms: _393  and  _394
REMARK  165  A    between atoms: _394  and  _395
REMARK  166  A    between atoms: _398  and  _400
REMARK  167  A    between atoms: _400  and  _401
REMARK  168  A    between atoms: _400  and  _403
REMARK  169  A    between atoms: _403  and  _404
REMARK  170  A    between atoms: _404  and  _405
REMARK  171  A    between atoms: _407  and  _409
REMARK  172  A    between atoms: _409  and  _410
REMARK  173  A    between atoms: _409  and  _412
REMARK  174  A    between atoms: _412  and  _413
REMARK  175  A    between atoms: _418  and  _419
REMARK  176  A    between atoms: _421  and  _423
REMARK  177  A    between atoms: _423  and  _424
REMARK  178  A    between atoms: _423  and  _426
REMARK  179  A    between atoms: _426  and  _427
REMARK  180  A    between atoms: _430  and  _432
REMARK  181  A    between atoms: _432  and  _433
REMARK  182  A    between atoms: _432  and  _435
REMARK  183  A    between atoms: _435  and  _436
REMARK  184  A    between atoms: _436  and  _437
REMARK  185  A    between atoms: _439  and  _441
REMARK  186  A    between atoms: _441  and  _442
REMARK  187  A    between atoms: _444  and  _446
REMARK  188  A    between atoms: _446  and  _447
REMARK  189  A    between atoms: _446  and  _449
REMARK  190  A    between atoms: _452  and  _454
REMARK  191  A    between atoms: _454  and  _455
REMARK  192  A    between atoms: _457  and  _459
REMARK  193  A    between atoms: _459  and  _460
REMARK  194  A    between atoms: _459  and  _462
REMARK  195  A    between atoms: _462  and  _463
REMARK  196  A    between atoms: _469  and  _471
REMARK  197  A    between atoms: _471  and  _472
REMARK  198  A    between atoms: _471  and  _474
REMARK  199  A    between atoms: _474  and  _475
REMARK  200  A    between atoms: _478  and  _480
REMARK  201  A    between atoms: _480  and  _481
REMARK  202  A    between atoms: _480  and  _483
REMARK  203  A    between atoms: _485  and  _487
REMARK  204  A    between atoms: _487  and  _488
REMARK  205  A    between atoms: _487  and  _490
REMARK  206  A    between atoms: _493  and  _495
REMARK  207  A    between atoms: _495  and  _496
REMARK  208  A    between atoms: _495  and  _498
REMARK  209  A    between atoms: _498  and  _499
REMARK  210  A    between atoms: _502  and  _504
REMARK  211  A    between atoms: _504  and  _505
REMARK  212  A    between atoms: _504  and  _507
REMARK  213  A    between atoms: _507  and  _508
REMARK  214  A    between atoms: _508  and  _509
REMARK  215  A    between atoms: _509  and  _510
REMARK                            x       y       z     vdW  Elec       q    Type
REMARK                         _______ _______ _______ _____ _____    ______ ____
ROOT
ATOM      1  O   HOH     1      18.238  13.826  31.137  0.00  0.00    +0.000 OA
ENDROOT
TORSDOF 0
REMARK  Name = ../refined-set-2016/3ge7/3ge7_pocket.pdb
REMARK  215 active torsions:
REMARK  status: ('A' for Active; 'I' for Inactive)
REMARK    1  A    between atoms: _1  and  _3
REMARK    2  A    between atoms: _3  and  _4
REMARK    3  A    between atoms: _3  and  _6
REMARK    4  A    between atoms: _6  and  _7
REMARK    5  A    between atoms: _7  and  _8
REMARK    6  A    between atoms: _11  and  _12
REMARK    7  A    between atoms: _17  and  _19
REMARK    8  A    between atoms: _19  and  _20
REMARK    9  A    between atoms: _19  and  _22
REMARK   10  A    between atoms: _25  and  _27
REMARK   11  A    between atoms: _27  and  _28
REMARK   12  A    between atoms: _30  and  _32
REMARK   13  A    between atoms: _32  and  _33
REMARK   14  A    between atoms: _32  and  _35
REMARK   15  A    between atoms: _35  and  _36
REMARK   16  A    between atoms: _39  and  _41
REMARK   17  A    between atoms: _41  and  _42
REMARK   18  A    between atoms: _45  and  _47
REMARK   19  A    between atoms: _47  and  _48
REMARK   20  A    between atoms: _47  and  _50
REMARK   21  A    between atoms: _50  and  _51
REMARK   22  A    between atoms: _51  and  _52
REMARK   23  A    between atoms: _52  and  _53
REMARK   24  A    between atoms: _53  and  _54
REMARK   25  A    between atoms: _58  and  _60
REMARK   26  A    between atoms: _60  and  _61
REMARK   27  A    between atoms: _60  and  _63
REMARK   28  A    between atoms: _63  and  _64
REMARK   29  A    between atoms: _67  and  _69
REMARK   30  A    between atoms: _69  and  _70
REMARK   31  A    between atoms: _72  and  _74
REMARK   32  A    between atoms: _74  and  _75
REMARK   33  A    between atoms: _74  and  _77
REMARK   34  A    between atoms: _77  and  _78
REMARK   35  A    between atoms: _83  and  _85
REMARK   36  A    between atoms: _85  and  _86
REMARK   37  A    between atoms: _85  and  _88
REMARK   38  A    between atoms: _88  and  _89
REMARK   39  A    between atoms: _92  and  _94
REMARK   40  A    between atoms: _94  and  _95
REMARK   41  A    between atoms: _94  and  _97
REMARK   42  A    between atoms: _97  and  _98
REMARK   43  A    between atoms: _103  and  _104
REMARK   44  A    between atoms: _106  and  _108
REMARK   45  A    between atoms: _108  and  _109
REMARK   46  A    between atoms: _108  and  _111
REMARK   47  A    between atoms: _111  and  _112
REMARK   48  A    between atoms: _117  and  _119
REMARK   49  A    between atoms: _119  and  _120
REMARK   50  A    between atoms: _119  and  _122
REMARK   51  A    between atoms: _122  and  _123
REMARK   52  A    between atoms: _126  and  _128
REMARK   53  A    between atoms: _128  and  _129
REMARK   54  A    between atoms: _128  and  _131
REMARK   55  A    between atoms: _131  and  _132
REMARK   56  A    between atoms: _135  and  _137
REMARK   57  A    between atoms: _137  and  _138
REMARK   58  A    between atoms: _137  and  _140
REMARK   59  A    between atoms: _140  and  _141
REMARK   60  A    between atoms: _144  and  _146
REMARK   61  A    between atoms: _146  and  _147
REMARK   62  A    between atoms: _146  and  _149
REMARK   63  A    between atoms: _149  and  _150
REMARK   64  A    between atoms: _153  and  _155
REMARK   65  A    between atoms: _155  and  _156
REMARK   66  A    between atoms: _155  and  _158
REMARK   67  A    between atoms: _158  and  _159
REMARK   68  A    between atoms: _161  and  _163
REMARK   69  A    between atoms: _163  and  _164
REMARK   70  A    between atoms: _166  and  _168
REMARK   71  A    between atoms: _168  and  _169
REMARK   72  A    between atoms: _171  and  _173
REMARK   73  A    between atoms: _173  and  _174
REMARK   74  A    between atoms: _173  and  _176
REMARK   75  A    between atoms: _176  and  _177
REMARK   76  A    between atoms: _182  and  _183
REMARK   77  A    between atoms: _185  and  _187
REMARK   78  A    between atoms: _187  and  _188
REMARK   79  A    between atoms: _187  and  _190
REMARK   80  A    between atoms: _190  and  _191
REMARK   81  A    between atoms: _191  and  _192
REMARK   82  A    between atoms: _197  and  _199
REMARK   83  A    between atoms: _199  and  _200
REMARK   84  A    between atoms: _203  and  _205
REMARK   85  A    between atoms: _205  and  _206
REMARK   86  A    between atoms: _205  and  _208
REMARK   87  A    between atoms: _208  and  _209
REMARK   88  A    between atoms: _209  and  _210
REMARK   89  A    between atoms: _212  and  _214
REMARK   90  A    between atoms: _214  and  _215
REMARK   91  A    between atoms: _218  and  _220
REMARK   92  A    between atoms: _220  and  _221
REMARK   93  A    between atoms: _220  and  _223
REMARK   94  A    between atoms: _223  and  _224
REMARK   95  A    between atoms: _230  and  _232
REMARK   96  A    between atoms: _232  and  _233
REMARK   97  A    between atoms: _232  and  _235
REMARK   98  A    between atoms: _235  and  _236
REMARK   99  A    between atoms: _239  and  _241
REMARK  100  A    between atoms: _241  and  _242
REMARK  101  A    between atoms: _241  and  _244
REMARK  102  A    between atoms: _244  and  _245
REMARK  103  A    between atoms: _245  and  _246
REMARK  104  A    between atoms: _249  and  _251
REMARK  105  A    between atoms: _251  and  _252
REMARK  106  A    between atoms: _251  and  _254
REMARK  107  A    between atoms: _256  and  _258
REMARK  108  A    between atoms: _258  and  _259
REMARK  109  A    between atoms: _258  and  _261
REMARK  110  A    between atoms: _261  and  _262
REMARK  111  A    between atoms: _265  and  _267
REMARK  112  A    between atoms: _267  and  _268
REMARK  113  A    between atoms: _267  and  _270
REMARK  114  A    between atoms: _270  and  _271
REMARK  115  A    between atoms: _273  and  _275
REMARK  116  A    between atoms: _275  and  _276
REMARK  117  A    between atoms: _275  and  _278
REMARK  118  A    between atoms: _278  and  _279
REMARK  119  A    between atoms: _282  and  _284
REMARK  120  A    between atoms: _284  and  _285
REMARK  121  A    between atoms: _284  and  _287
REMARK  122  A    between atoms: _287  and  _288
REMARK  123  A    between atoms: _288  and  _289
REMARK  124  A    between atoms: _294  and  _296
REMARK  125  A    between atoms: _296  and  _297
REMARK  126  A    between atoms: _296  and  _299
REMARK  127  A    between atoms: _299  and  _300
REMARK  128  A    between atoms: _300  and  _301
REMARK  129  A    between atoms: _306  and  _308
REMARK  130  A    between atoms: _308  and  _309
REMARK  131  A    between atoms: _311  and  _313
REMARK  132  A    between atoms: _313  and  _314
REMARK  133  A    between atoms: _313  and  _316
REMARK  134  A    between atoms: _316  and  _317
REMARK  135  A    between atoms: _319  and  _321
REMARK  136  A    between atoms: _321  and  _322
REMARK  137  A    between atoms: _321  and  _324
REMARK  138  A    between atoms: _324  and  _325
REMARK  139  A    between atoms: _325  and  _326
REMARK  140  A    between atoms: _326  and  _327
REMARK  141  A    between atoms: _336  and  _338
REMARK  142  A    between atoms: _338  and  _339
REMARK  143  A    between atoms: _342  and  _344
REMARK  144  A    between atoms: _344  and  _345
REMARK  145  A    between atoms: _344  and  _347
REMARK  146  A    between atoms: _350  and  _352
REMARK  147  A    between atoms: _352  and  _353
REMARK  148  A    between atoms: _355  and  _357
REMARK  149  A    between atoms: _357  and  _358
REMARK  150  A    between atoms: _360  and  _362
REMARK  151  A    between atoms: _362  and  _363
REMARK  152  A    between atoms: _362  and  _365
REMARK  153  A    between atoms: _365  and  _366
REMARK  154  A    between atoms: _369  and  _371
REMARK  155  A    between atoms: _371  and  _372
REMARK  156  A    between atoms: _375  and  _377
REMARK  157  A    between atoms: _377  and  _378
REMARK  158  A    between atoms: _377  and  _380
REMARK  159  A    between atoms: _383  and  _385
REMARK  160  A    between atoms: _385  and  _386
REMARK  161  A    between atoms: _388  and  _390
REMARK  162  A    between atoms: _390  and  _391
REMARK  163  A    between atoms: _390  and  _393
REMARK  164  A    between atoms: _393  and  _394
REMARK  165  A    between atoms: _394  and  _395
REMARK  166  A    between atoms: _398  and  _400
REMARK  167  A    between atoms: _400  and  _401
REMARK  168  A    between atoms: _400  and  _403
REMARK  169  A    between atoms: _403  and  _404
REMARK  170  A    between atoms: _404  and  _405
REMARK  171  A    between atoms: _407  and  _409
REMARK  172  A    between atoms: _409  and  _410
REMARK  173  A    between atoms: _409  and  _412
REMARK  174  A    between atoms: _412  and  _413
REMARK  175  A    between atoms: _418  and  _419
REMARK  176  A    between atoms: _421  and  _423
REMARK  177  A    between atoms: _423  and  _424
REMARK  178  A    between atoms: _423  and  _426
REMARK  179  A    between atoms: _426  and  _427
REMARK  180  A    between atoms: _430  and  _432
REMARK  181  A    between atoms: _432  and  _433
REMARK  182  A    between atoms: _432  and  _435
REMARK  183  A    between atoms: _435  and  _436
REMARK  184  A    between atoms: _436  and  _437
REMARK  185  A    between atoms: _439  and  _441
REMARK  186  A    between atoms: _441  and  _442
REMARK  187  A    between atoms: _444  and  _446
REMARK  188  A    between atoms: _446  and  _447
REMARK  189  A    between atoms: _446  and  _449
REMARK  190  A    between atoms: _452  and  _454
REMARK  191  A    between atoms: _454  and  _455
REMARK  192  A    between atoms: _457  and  _459
REMARK  193  A    between atoms: _459  and  _460
REMARK  194  A    between atoms: _459  and  _462
REMARK  195  A    between atoms: _462  and  _463
REMARK  196  A    between atoms: _469  and  _471
REMARK  197  A    between atoms: _471  and  _472
REMARK  198  A    between atoms: _471  and  _474
REMARK  199  A    between atoms: _474  and  _475
REMARK  200  A    between atoms: _478  and  _480
REMARK  201  A    between atoms: _480  and  _481
REMARK  202  A    between atoms: _480  and  _483
REMARK  203  A    between atoms: _485  and  _487
REMARK  204  A    between atoms: _487  and  _488
REMARK  205  A    between atoms: _487  and  _490
REMARK  206  A    between atoms: _493  and  _495
REMARK  207  A    between atoms: _495  and  _496
REMARK  208  A    between atoms: _495  and  _498
REMARK  209  A    between atoms: _498  and  _499
REMARK  210  A    between atoms: _502  and  _504
REMARK  211  A    between atoms: _504  and  _505
REMARK  212  A    between atoms: _504  and  _507
REMARK  213  A    between atoms: _507  and  _508
REMARK  214  A    between atoms: _508  and  _509
REMARK  215  A    between atoms: _509  and  _510
REMARK                            x       y       z     vdW  Elec       q    Type
REMARK                         _______ _______ _______ _____ _____    ______ ____
ROOT
ATOM      1  O   HOH     1       8.561  16.560  20.813  0.00  0.00    +0.000 OA
ENDROOT
TORSDOF 0
REMARK  Name = ../refined-set-2016/3ge7/3ge7_pocket.pdb
REMARK  215 active torsions:
REMARK  status: ('A' for Active; 'I' for Inactive)
REMARK    1  A    between atoms: _1  and  _3
REMARK    2  A    between atoms: _3  and  _4
REMARK    3  A    between atoms: _3  and  _6
REMARK    4  A    between atoms: _6  and  _7
REMARK    5  A    between atoms: _7  and  _8
REMARK    6  A    between atoms: _11  and  _12
REMARK    7  A    between atoms: _17  and  _19
REMARK    8  A    between atoms: _19  and  _20
REMARK    9  A    between atoms: _19  and  _22
REMARK   10  A    between atoms: _25  and  _27
REMARK   11  A    between atoms: _27  and  _28
REMARK   12  A    between atoms: _30  and  _32
REMARK   13  A    between atoms: _32  and  _33
REMARK   14  A    between atoms: _32  and  _35
REMARK   15  A    between atoms: _35  and  _36
REMARK   16  A    between atoms: _39  and  _41
REMARK   17  A    between atoms: _41  and  _42
REMARK   18  A    between atoms: _45  and  _47
REMARK   19  A    between atoms: _47  and  _48
REMARK   20  A    between atoms: _47  and  _50
REMARK   21  A    between atoms: _50  and  _51
REMARK   22  A    between atoms: _51  and  _52
REMARK   23  A    between atoms: _52  and  _53
REMARK   24  A    between atoms: _53  and  _54
REMARK   25  A    between atoms: _58  and  _60
REMARK   26  A    between atoms: _60  and  _61
REMARK   27  A    between atoms: _60  and  _63
REMARK   28  A    between atoms: _63  and  _64
REMARK   29  A    between atoms: _67  and  _69
REMARK   30  A    between atoms: _69  and  _70
REMARK   31  A    between atoms: _72  and  _74
REMARK   32  A    between atoms: _74  and  _75
REMARK   33  A    between atoms: _74  and  _77
REMARK   34  A    between atoms: _77  and  _78
REMARK   35  A    between atoms: _83  and  _85
REMARK   36  A    between atoms: _85  and  _86
REMARK   37  A    between atoms: _85  and  _88
REMARK   38  A    between atoms: _88  and  _89
REMARK   39  A    between atoms: _92  and  _94
REMARK   40  A    between atoms: _94  and  _95
REMARK   41  A    between atoms: _94  and  _97
REMARK   42  A    between atoms: _97  and  _98
REMARK   43  A    between atoms: _103  and  _104
REMARK   44  A    between atoms: _106  and  _108
REMARK   45  A    between atoms: _108  and  _109
REMARK   46  A    between atoms: _108  and  _111
REMARK   47  A    between atoms: _111  and  _112
REMARK   48  A    between atoms: _117  and  _119
REMARK   49  A    between atoms: _119  and  _120
REMARK   50  A    between atoms: _119  and  _122
REMARK   51  A    between atoms: _122  and  _123
REMARK   52  A    between atoms: _126  and  _128
REMARK   53  A    between atoms: _128  and  _129
REMARK   54  A    between atoms: _128  and  _131
REMARK   55  A    between atoms: _131  and  _132
REMARK   56  A    between atoms: _135  and  _137
REMARK   57  A    between atoms: _137  and  _138
REMARK   58  A    between atoms: _137  and  _140
REMARK   59  A    between atoms: _140  and  _141
REMARK   60  A    between atoms: _144  and  _146
REMARK   61  A    between atoms: _146  and  _147
REMARK   62  A    between atoms: _146  and  _149
REMARK   63  A    between atoms: _149  and  _150
REMARK   64  A    between atoms: _153  and  _155
REMARK   65  A    between atoms: _155  and  _156
REMARK   66  A    between atoms: _155  and  _158
REMARK   67  A    between atoms: _158  and  _159
REMARK   68  A    between atoms: _161  and  _163
REMARK   69  A    between atoms: _163  and  _164
REMARK   70  A    between atoms: _166  and  _168
REMARK   71  A    between atoms: _168  and  _169
REMARK   72  A    between atoms: _171  and  _173
REMARK   73  A    between atoms: _173  and  _174
REMARK   74  A    between atoms: _173  and  _176
REMARK   75  A    between atoms: _176  and  _177
REMARK   76  A    between atoms: _182  and  _183
REMARK   77  A    between atoms: _185  and  _187
REMARK   78  A    between atoms: _187  and  _188
REMARK   79  A    between atoms: _187  and  _190
REMARK   80  A    between atoms: _190  and  _191
REMARK   81  A    between atoms: _191  and  _192
REMARK   82  A    between atoms: _197  and  _199
REMARK   83  A    between atoms: _199  and  _200
REMARK   84  A    between atoms: _203  and  _205
REMARK   85  A    between atoms: _205  and  _206
REMARK   86  A    between atoms: _205  and  _208
REMARK   87  A    between atoms: _208  and  _209
REMARK   88  A    between atoms: _209  and  _210
REMARK   89  A    between atoms: _212  and  _214
REMARK   90  A    between atoms: _214  and  _215
REMARK   91  A    between atoms: _218  and  _220
REMARK   92  A    between atoms: _220  and  _221
REMARK   93  A    between atoms: _220  and  _223
REMARK   94  A    between atoms: _223  and  _224
REMARK   95  A    between atoms: _230  and  _232
REMARK   96  A    between atoms: _232  and  _233
REMARK   97  A    between atoms: _232  and  _235
REMARK   98  A    between atoms: _235  and  _236
REMARK   99  A    between atoms: _239  and  _241
REMARK  100  A    between atoms: _241  and  _242
REMARK  101  A    between atoms: _241  and  _244
REMARK  102  A    between atoms: _244  and  _245
REMARK  103  A    between atoms: _245  and  _246
REMARK  104  A    between atoms: _249  and  _251
REMARK  105  A    between atoms: _251  and  _252
REMARK  106  A    between atoms: _251  and  _254
REMARK  107  A    between atoms: _256  and  _258
REMARK  108  A    between atoms: _258  and  _259
REMARK  109  A    between atoms: _258  and  _261
REMARK  110  A    between atoms: _261  and  _262
REMARK  111  A    between atoms: _265  and  _267
REMARK  112  A    between atoms: _267  and  _268
REMARK  113  A    between atoms: _267  and  _270
REMARK  114  A    between atoms: _270  and  _271
REMARK  115  A    between atoms: _273  and  _275
REMARK  116  A    between atoms: _275  and  _276
REMARK  117  A    between atoms: _275  and  _278
REMARK  118  A    between atoms: _278  and  _279
REMARK  119  A    between atoms: _282  and  _284
REMARK  120  A    between atoms: _284  and  _285
REMARK  121  A    between atoms: _284  and  _287
REMARK  122  A    between atoms: _287  and  _288
REMARK  123  A    between atoms: _288  and  _289
REMARK  124  A    between atoms: _294  and  _296
REMARK  125  A    between atoms: _296  and  _297
REMARK  126  A    between atoms: _296  and  _299
REMARK  127  A    between atoms: _299  and  _300
REMARK  128  A    between atoms: _300  and  _301
REMARK  129  A    between atoms: _306  and  _308
REMARK  130  A    between atoms: _308  and  _309
REMARK  131  A    between atoms: _311  and  _313
REMARK  132  A    between atoms: _313  and  _314
REMARK  133  A    between atoms: _313  and  _316
REMARK  134  A    between atoms: _316  and  _317
REMARK  135  A    between atoms: _319  and  _321
REMARK  136  A    between atoms: _321  and  _322
REMARK  137  A    between atoms: _321  and  _324
REMARK  138  A    between atoms: _324  and  _325
REMARK  139  A    between atoms: _325  and  _326
REMARK  140  A    between atoms: _326  and  _327
REMARK  141  A    between atoms: _336  and  _338
REMARK  142  A    between atoms: _338  and  _339
REMARK  143  A    between atoms: _342  and  _344
REMARK  144  A    between atoms: _344  and  _345
REMARK  145  A    between atoms: _344  and  _347
REMARK  146  A    between atoms: _350  and  _352
REMARK  147  A    between atoms: _352  and  _353
REMARK  148  A    between atoms: _355  and  _357
REMARK  149  A    between atoms: _357  and  _358
REMARK  150  A    between atoms: _360  and  _362
REMARK  151  A    between atoms: _362  and  _363
REMARK  152  A    between atoms: _362  and  _365
REMARK  153  A    between atoms: _365  and  _366
REMARK  154  A    between atoms: _369  and  _371
REMARK  155  A    between atoms: _371  and  _372
REMARK  156  A    between atoms: _375  and  _377
REMARK  157  A    between atoms: _377  and  _378
REMARK  158  A    between atoms: _377  and  _380
REMARK  159  A    between atoms: _383  and  _385
REMARK  160  A    between atoms: _385  and  _386
REMARK  161  A    between atoms: _388  and  _390
REMARK  162  A    between atoms: _390  and  _391
REMARK  163  A    between atoms: _390  and  _393
REMARK  164  A    between atoms: _393  and  _394
REMARK  165  A    between atoms: _394  and  _395
REMARK  166  A    between atoms: _398  and  _400
REMARK  167  A    between atoms: _400  and  _401
REMARK  168  A    between atoms: _400  and  _403
REMARK  169  A    between atoms: _403  and  _404
REMARK  170  A    between atoms: _404  and  _405
REMARK  171  A    between atoms: _407  and  _409
REMARK  172  A    between atoms: _409  and  _410
REMARK  173  A    between atoms: _409  and  _412
REMARK  174  A    between atoms: _412  and  _413
REMARK  175  A    between atoms: _418  and  _419
REMARK  176  A    between atoms: _421  and  _423
REMARK  177  A    between atoms: _423  and  _424
REMARK  178  A    between atoms: _423  and  _426
REMARK  179  A    between atoms: _426  and  _427
REMARK  180  A    between atoms: _430  and  _432
REMARK  181  A    between atoms: _432  and  _433
REMARK  182  A    between atoms: _432  and  _435
REMARK  183  A    between atoms: _435  and  _436
REMARK  184  A    between atoms: _436  and  _437
REMARK  185  A    between atoms: _439  and  _441
REMARK  186  A    between atoms: _441  and  _442
REMARK  187  A    between atoms: _444  and  _446
REMARK  188  A    between atoms: _446  and  _447
REMARK  189  A    between atoms: _446  and  _449
REMARK  190  A    between atoms: _452  and  _454
REMARK  191  A    between atoms: _454  and  _455
REMARK  192  A    between atoms: _457  and  _459
REMARK  193  A    between atoms: _459  and  _460
REMARK  194  A    between atoms: _459  and  _462
REMARK  195  A    between atoms: _462  and  _463
REMARK  196  A    between atoms: _469  and  _471
REMARK  197  A    between atoms: _471  and  _472
REMARK  198  A    between atoms: _471  and  _474
REMARK  199  A    between atoms: _474  and  _475
REMARK  200  A    between atoms: _478  and  _480
REMARK  201  A    between atoms: _480  and  _481
REMARK  202  A    between atoms: _480  and  _483
REMARK  203  A    between atoms: _485  and  _487
REMARK  204  A    between atoms: _487  and  _488
REMARK  205  A    between atoms: _487  and  _490
REMARK  206  A    between atoms: _493  and  _495
REMARK  207  A    between atoms: _495  and  _496
REMARK  208  A    between atoms: _495  and  _498
REMARK  209  A    between atoms: _498  and  _499
REMARK  210  A    between atoms: _502  and  _504
REMARK  211  A    between atoms: _504  and  _505
REMARK  212  A    between atoms: _504  and  _507
REMARK  213  A    between atoms: _507  and  _508
REMARK  214  A    between atoms: _508  and  _509
REMARK  215  A    between atoms: _509  and  _510
REMARK                            x       y       z     vdW  Elec       q    Type
REMARK                         _______ _______ _______ _____ _____    ______ ____
ROOT
ATOM      1  O   HOH     1      11.189  17.621  22.100  0.00  0.00    +0.000 OA
ENDROOT
TORSDOF 0
REMARK  Name = ../refined-set-2016/3ge7/3ge7_pocket.pdb
REMARK  215 active torsions:
REMARK  status: ('A' for Active; 'I' for Inactive)
REMARK    1  A    between atoms: _1  and  _3
REMARK    2  A    between atoms: _3  and  _4
REMARK    3  A    between atoms: _3  and  _6
REMARK    4  A    between atoms: _6  and  _7
REMARK    5  A    between atoms: _7  and  _8
REMARK    6  A    between atoms: _11  and  _12
REMARK    7  A    between atoms: _17  and  _19
REMARK    8  A    between atoms: _19  and  _20
REMARK    9  A    between atoms: _19  and  _22
REMARK   10  A    between atoms: _25  and  _27
REMARK   11  A    between atoms: _27  and  _28
REMARK   12  A    between atoms: _30  and  _32
REMARK   13  A    between atoms: _32  and  _33
REMARK   14  A    between atoms: _32  and  _35
REMARK   15  A    between atoms: _35  and  _36
REMARK   16  A    between atoms: _39  and  _41
REMARK   17  A    between atoms: _41  and  _42
REMARK   18  A    between atoms: _45  and  _47
REMARK   19  A    between atoms: _47  and  _48
REMARK   20  A    between atoms: _47  and  _50
REMARK   21  A    between atoms: _50  and  _51
REMARK   22  A    between atoms: _51  and  _52
REMARK   23  A    between atoms: _52  and  _53
REMARK   24  A    between atoms: _53  and  _54
REMARK   25  A    between atoms: _58  and  _60
REMARK   26  A    between atoms: _60  and  _61
REMARK   27  A    between atoms: _60  and  _63
REMARK   28  A    between atoms: _63  and  _64
REMARK   29  A    between atoms: _67  and  _69
REMARK   30  A    between atoms: _69  and  _70
REMARK   31  A    between atoms: _72  and  _74
REMARK   32  A    between atoms: _74  and  _75
REMARK   33  A    between atoms: _74  and  _77
REMARK   34  A    between atoms: _77  and  _78
REMARK   35  A    between atoms: _83  and  _85
REMARK   36  A    between atoms: _85  and  _86
REMARK   37  A    between atoms: _85  and  _88
REMARK   38  A    between atoms: _88  and  _89
REMARK   39  A    between atoms: _92  and  _94
REMARK   40  A    between atoms: _94  and  _95
REMARK   41  A    between atoms: _94  and  _97
REMARK   42  A    between atoms: _97  and  _98
REMARK   43  A    between atoms: _103  and  _104
REMARK   44  A    between atoms: _106  and  _108
REMARK   45  A    between atoms: _108  and  _109
REMARK   46  A    between atoms: _108  and  _111
REMARK   47  A    between atoms: _111  and  _112
REMARK   48  A    between atoms: _117  and  _119
REMARK   49  A    between atoms: _119  and  _120
REMARK   50  A    between atoms: _119  and  _122
REMARK   51  A    between atoms: _122  and  _123
REMARK   52  A    between atoms: _126  and  _128
REMARK   53  A    between atoms: _128  and  _129
REMARK   54  A    between atoms: _128  and  _131
REMARK   55  A    between atoms: _131  and  _132
REMARK   56  A    between atoms: _135  and  _137
REMARK   57  A    between atoms: _137  and  _138
REMARK   58  A    between atoms: _137  and  _140
REMARK   59  A    between atoms: _140  and  _141
REMARK   60  A    between atoms: _144  and  _146
REMARK   61  A    between atoms: _146  and  _147
REMARK   62  A    between atoms: _146  and  _149
REMARK   63  A    between atoms: _149  and  _150
REMARK   64  A    between atoms: _153  and  _155
REMARK   65  A    between atoms: _155  and  _156
REMARK   66  A    between atoms: _155  and  _158
REMARK   67  A    between atoms: _158  and  _159
REMARK   68  A    between atoms: _161  and  _163
REMARK   69  A    between atoms: _163  and  _164
REMARK   70  A    between atoms: _166  and  _168
REMARK   71  A    between atoms: _168  and  _169
REMARK   72  A    between atoms: _171  and  _173
REMARK   73  A    between atoms: _173  and  _174
REMARK   74  A    between atoms: _173  and  _176
REMARK   75  A    between atoms: _176  and  _177
REMARK   76  A    between atoms: _182  and  _183
REMARK   77  A    between atoms: _185  and  _187
REMARK   78  A    between atoms: _187  and  _188
REMARK   79  A    between atoms: _187  and  _190
REMARK   80  A    between atoms: _190  and  _191
REMARK   81  A    between atoms: _191  and  _192
REMARK   82  A    between atoms: _197  and  _199
REMARK   83  A    between atoms: _199  and  _200
REMARK   84  A    between atoms: _203  and  _205
REMARK   85  A    between atoms: _205  and  _206
REMARK   86  A    between atoms: _205  and  _208
REMARK   87  A    between atoms: _208  and  _209
REMARK   88  A    between atoms: _209  and  _210
REMARK   89  A    between atoms: _212  and  _214
REMARK   90  A    between atoms: _214  and  _215
REMARK   91  A    between atoms: _218  and  _220
REMARK   92  A    between atoms: _220  and  _221
REMARK   93  A    between atoms: _220  and  _223
REMARK   94  A    between atoms: _223  and  _224
REMARK   95  A    between atoms: _230  and  _232
REMARK   96  A    between atoms: _232  and  _233
REMARK   97  A    between atoms: _232  and  _235
REMARK   98  A    between atoms: _235  and  _236
REMARK   99  A    between atoms: _239  and  _241
REMARK  100  A    between atoms: _241  and  _242
REMARK  101  A    between atoms: _241  and  _244
REMARK  102  A    between atoms: _244  and  _245
REMARK  103  A    between atoms: _245  and  _246
REMARK  104  A    between atoms: _249  and  _251
REMARK  105  A    between atoms: _251  and  _252
REMARK  106  A    between atoms: _251  and  _254
REMARK  107  A    between atoms: _256  and  _258
REMARK  108  A    between atoms: _258  and  _259
REMARK  109  A    between atoms: _258  and  _261
REMARK  110  A    between atoms: _261  and  _262
REMARK  111  A    between atoms: _265  and  _267
REMARK  112  A    between atoms: _267  and  _268
REMARK  113  A    between atoms: _267  and  _270
REMARK  114  A    between atoms: _270  and  _271
REMARK  115  A    between atoms: _273  and  _275
REMARK  116  A    between atoms: _275  and  _276
REMARK  117  A    between atoms: _275  and  _278
REMARK  118  A    between atoms: _278  and  _279
REMARK  119  A    between atoms: _282  and  _284
REMARK  120  A    between atoms: _284  and  _285
REMARK  121  A    between atoms: _284  and  _287
REMARK  122  A    between atoms: _287  and  _288
REMARK  123  A    between atoms: _288  and  _289
REMARK  124  A    between atoms: _294  and  _296
REMARK  125  A    between atoms: _296  and  _297
REMARK  126  A    between atoms: _296  and  _299
REMARK  127  A    between atoms: _299  and  _300
REMARK  128  A    between atoms: _300  and  _301
REMARK  129  A    between atoms: _306  and  _308
REMARK  130  A    between atoms: _308  and  _309
REMARK  131  A    between atoms: _311  and  _313
REMARK  132  A    between atoms: _313  and  _314
REMARK  133  A    between atoms: _313  and  _316
REMARK  134  A    between atoms: _316  and  _317
REMARK  135  A    between atoms: _319  and  _321
REMARK  136  A    between atoms: _321  and  _322
REMARK  137  A    between atoms: _321  and  _324
REMARK  138  A    between atoms: _324  and  _325
REMARK  139  A    between atoms: _325  and  _326
REMARK  140  A    between atoms: _326  and  _327
REMARK  141  A    between atoms: _336  and  _338
REMARK  142  A    between atoms: _338  and  _339
REMARK  143  A    between atoms: _342  and  _344
REMARK  144  A    between atoms: _344  and  _345
REMARK  145  A    between atoms: _344  and  _347
REMARK  146  A    between atoms: _350  and  _352
REMARK  147  A    between atoms: _352  and  _353
REMARK  148  A    between atoms: _355  and  _357
REMARK  149  A    between atoms: _357  and  _358
REMARK  150  A    between atoms: _360  and  _362
REMARK  151  A    between atoms: _362  and  _363
REMARK  152  A    between atoms: _362  and  _365
REMARK  153  A    between atoms: _365  and  _366
REMARK  154  A    between atoms: _369  and  _371
REMARK  155  A    between atoms: _371  and  _372
REMARK  156  A    between atoms: _375  and  _377
REMARK  157  A    between atoms: _377  and  _378
REMARK  158  A    between atoms: _377  and  _380
REMARK  159  A    between atoms: _383  and  _385
REMARK  160  A    between atoms: _385  and  _386
REMARK  161  A    between atoms: _388  and  _390
REMARK  162  A    between atoms: _390  and  _391
REMARK  163  A    between atoms: _390  and  _393
REMARK  164  A    between atoms: _393  and  _394
REMARK  165  A    between atoms: _394  and  _395
REMARK  166  A    between atoms: _398  and  _400
REMARK  167  A    between atoms: _400  and  _401
REMARK  168  A    between atoms: _400  and  _403
REMARK  169  A    between atoms: _403  and  _404
REMARK  170  A    between atoms: _404  and  _405
REMARK  171  A    between atoms: _407  and  _409
REMARK  172  A    between atoms: _409  and  _410
REMARK  173  A    between atoms: _409  and  _412
REMARK  174  A    between atoms: _412  and  _413
REMARK  175  A    between atoms: _418  and  _419
REMARK  176  A    between atoms: _421  and  _423
REMARK  177  A    between atoms: _423  and  _424
REMARK  178  A    between atoms: _423  and  _426
REMARK  179  A    between atoms: _426  and  _427
REMARK  180  A    between atoms: _430  and  _432
REMARK  181  A    between atoms: _432  and  _433
REMARK  182  A    between atoms: _432  and  _435
REMARK  183  A    between atoms: _435  and  _436
REMARK  184  A    between atoms: _436  and  _437
REMARK  185  A    between atoms: _439  and  _441
REMARK  186  A    between atoms: _441  and  _442
REMARK  187  A    between atoms: _444  and  _446
REMARK  188  A    between atoms: _446  and  _447
REMARK  189  A    between atoms: _446  and  _449
REMARK  190  A    between atoms: _452  and  _454
REMARK  191  A    between atoms: _454  and  _455
REMARK  192  A    between atoms: _457  and  _459
REMARK  193  A    between atoms: _459  and  _460
REMARK  194  A    between atoms: _459  and  _462
REMARK  195  A    between atoms: _462  and  _463
REMARK  196  A    between atoms: _469  and  _471
REMARK  197  A    between atoms: _471  and  _472
REMARK  198  A    between atoms: _471  and  _474
REMARK  199  A    between atoms: _474  and  _475
REMARK  200  A    between atoms: _478  and  _480
REMARK  201  A    between atoms: _480  and  _481
REMARK  202  A    between atoms: _480  and  _483
REMARK  203  A    between atoms: _485  and  _487
REMARK  204  A    between atoms: _487  and  _488
REMARK  205  A    between atoms: _487  and  _490
REMARK  206  A    between atoms: _493  and  _495
REMARK  207  A    between atoms: _495  and  _496
REMARK  208  A    between atoms: _495  and  _498
REMARK  209  A    between atoms: _498  and  _499
REMARK  210  A    between atoms: _502  and  _504
REMARK  211  A    between atoms: _504  and  _505
REMARK  212  A    between atoms: _504  and  _507
REMARK  213  A    between atoms: _507  and  _508
REMARK  214  A    between atoms: _508  and  _509
REMARK  215  A    between atoms: _509  and  _510
REMARK                            x       y       z     vdW  Elec       q    Type
REMARK                         _______ _______ _______ _____ _____    ______ ____
ROOT
ATOM      1  O   HOH     1      24.314  20.096  25.534  0.00  0.00    +0.000 OA
ENDROOT
TORSDOF 0
REMARK  Name = ../refined-set-2016/3ge7/3ge7_pocket.pdb
REMARK  215 active torsions:
REMARK  status: ('A' for Active; 'I' for Inactive)
REMARK    1  A    between atoms: _1  and  _3
REMARK    2  A    between atoms: _3  and  _4
REMARK    3  A    between atoms: _3  and  _6
REMARK    4  A    between atoms: _6  and  _7
REMARK    5  A    between atoms: _7  and  _8
REMARK    6  A    between atoms: _11  and  _12
REMARK    7  A    between atoms: _17  and  _19
REMARK    8  A    between atoms: _19  and  _20
REMARK    9  A    between atoms: _19  and  _22
REMARK   10  A    between atoms: _25  and  _27
REMARK   11  A    between atoms: _27  and  _28
REMARK   12  A    between atoms: _30  and  _32
REMARK   13  A    between atoms: _32  and  _33
REMARK   14  A    between atoms: _32  and  _35
REMARK   15  A    between atoms: _35  and  _36
REMARK   16  A    between atoms: _39  and  _41
REMARK   17  A    between atoms: _41  and  _42
REMARK   18  A    between atoms: _45  and  _47
REMARK   19  A    between atoms: _47  and  _48
REMARK   20  A    between atoms: _47  and  _50
REMARK   21  A    between atoms: _50  and  _51
REMARK   22  A    between atoms: _51  and  _52
REMARK   23  A    between atoms: _52  and  _53
REMARK   24  A    between atoms: _53  and  _54
REMARK   25  A    between atoms: _58  and  _60
REMARK   26  A    between atoms: _60  and  _61
REMARK   27  A    between atoms: _60  and  _63
REMARK   28  A    between atoms: _63  and  _64
REMARK   29  A    between atoms: _67  and  _69
REMARK   30  A    between atoms: _69  and  _70
REMARK   31  A    between atoms: _72  and  _74
REMARK   32  A    between atoms: _74  and  _75
REMARK   33  A    between atoms: _74  and  _77
REMARK   34  A    between atoms: _77  and  _78
REMARK   35  A    between atoms: _83  and  _85
REMARK   36  A    between atoms: _85  and  _86
REMARK   37  A    between atoms: _85  and  _88
REMARK   38  A    between atoms: _88  and  _89
REMARK   39  A    between atoms: _92  and  _94
REMARK   40  A    between atoms: _94  and  _95
REMARK   41  A    between atoms: _94  and  _97
REMARK   42  A    between atoms: _97  and  _98
REMARK   43  A    between atoms: _103  and  _104
REMARK   44  A    between atoms: _106  and  _108
REMARK   45  A    between atoms: _108  and  _109
REMARK   46  A    between atoms: _108  and  _111
REMARK   47  A    between atoms: _111  and  _112
REMARK   48  A    between atoms: _117  and  _119
REMARK   49  A    between atoms: _119  and  _120
REMARK   50  A    between atoms: _119  and  _122
REMARK   51  A    between atoms: _122  and  _123
REMARK   52  A    between atoms: _126  and  _128
REMARK   53  A    between atoms: _128  and  _129
REMARK   54  A    between atoms: _128  and  _131
REMARK   55  A    between atoms: _131  and  _132
REMARK   56  A    between atoms: _135  and  _137
REMARK   57  A    between atoms: _137  and  _138
REMARK   58  A    between atoms: _137  and  _140
REMARK   59  A    between atoms: _140  and  _141
REMARK   60  A    between atoms: _144  and  _146
REMARK   61  A    between atoms: _146  and  _147
REMARK   62  A    between atoms: _146  and  _149
REMARK   63  A    between atoms: _149  and  _150
REMARK   64  A    between atoms: _153  and  _155
REMARK   65  A    between atoms: _155  and  _156
REMARK   66  A    between atoms: _155  and  _158
REMARK   67  A    between atoms: _158  and  _159
REMARK   68  A    between atoms: _161  and  _163
REMARK   69  A    between atoms: _163  and  _164
REMARK   70  A    between atoms: _166  and  _168
REMARK   71  A    between atoms: _168  and  _169
REMARK   72  A    between atoms: _171  and  _173
REMARK   73  A    between atoms: _173  and  _174
REMARK   74  A    between atoms: _173  and  _176
REMARK   75  A    between atoms: _176  and  _177
REMARK   76  A    between atoms: _182  and  _183
REMARK   77  A    between atoms: _185  and  _187
REMARK   78  A    between atoms: _187  and  _188
REMARK   79  A    between atoms: _187  and  _190
REMARK   80  A    between atoms: _190  and  _191
REMARK   81  A    between atoms: _191  and  _192
REMARK   82  A    between atoms: _197  and  _199
REMARK   83  A    between atoms: _199  and  _200
REMARK   84  A    between atoms: _203  and  _205
REMARK   85  A    between atoms: _205  and  _206
REMARK   86  A    between atoms: _205  and  _208
REMARK   87  A    between atoms: _208  and  _209
REMARK   88  A    between atoms: _209  and  _210
REMARK   89  A    between atoms: _212  and  _214
REMARK   90  A    between atoms: _214  and  _215
REMARK   91  A    between atoms: _218  and  _220
REMARK   92  A    between atoms: _220  and  _221
REMARK   93  A    between atoms: _220  and  _223
REMARK   94  A    between atoms: _223  and  _224
REMARK   95  A    between atoms: _230  and  _232
REMARK   96  A    between atoms: _232  and  _233
REMARK   97  A    between atoms: _232  and  _235
REMARK   98  A    between atoms: _235  and  _236
REMARK   99  A    between atoms: _239  and  _241
REMARK  100  A    between atoms: _241  and  _242
REMARK  101  A    between atoms: _241  and  _244
REMARK  102  A    between atoms: _244  and  _245
REMARK  103  A    between atoms: _245  and  _246
REMARK  104  A    between atoms: _249  and  _251
REMARK  105  A    between atoms: _251  and  _252
REMARK  106  A    between atoms: _251  and  _254
REMARK  107  A    between atoms: _256  and  _258
REMARK  108  A    between atoms: _258  and  _259
REMARK  109  A    between atoms: _258  and  _261
REMARK  110  A    between atoms: _261  and  _262
REMARK  111  A    between atoms: _265  and  _267
REMARK  112  A    between atoms: _267  and  _268
REMARK  113  A    between atoms: _267  and  _270
REMARK  114  A    between atoms: _270  and  _271
REMARK  115  A    between atoms: _273  and  _275
REMARK  116  A    between atoms: _275  and  _276
REMARK  117  A    between atoms: _275  and  _278
REMARK  118  A    between atoms: _278  and  _279
REMARK  119  A    between atoms: _282  and  _284
REMARK  120  A    between atoms: _284  and  _285
REMARK  121  A    between atoms: _284  and  _287
REMARK  122  A    between atoms: _287  and  _288
REMARK  123  A    between atoms: _288  and  _289
REMARK  124  A    between atoms: _294  and  _296
REMARK  125  A    between atoms: _296  and  _297
REMARK  126  A    between atoms: _296  and  _299
REMARK  127  A    between atoms: _299  and  _300
REMARK  128  A    between atoms: _300  and  _301
REMARK  129  A    between atoms: _306  and  _308
REMARK  130  A    between atoms: _308  and  _309
REMARK  131  A    between atoms: _311  and  _313
REMARK  132  A    between atoms: _313  and  _314
REMARK  133  A    between atoms: _313  and  _316
REMARK  134  A    between atoms: _316  and  _317
REMARK  135  A    between atoms: _319  and  _321
REMARK  136  A    between atoms: _321  and  _322
REMARK  137  A    between atoms: _321  and  _324
REMARK  138  A    between atoms: _324  and  _325
REMARK  139  A    between atoms: _325  and  _326
REMARK  140  A    between atoms: _326  and  _327
REMARK  141  A    between atoms: _336  and  _338
REMARK  142  A    between atoms: _338  and  _339
REMARK  143  A    between atoms: _342  and  _344
REMARK  144  A    between atoms: _344  and  _345
REMARK  145  A    between atoms: _344  and  _347
REMARK  146  A    between atoms: _350  and  _352
REMARK  147  A    between atoms: _352  and  _353
REMARK  148  A    between atoms: _355  and  _357
REMARK  149  A    between atoms: _357  and  _358
REMARK  150  A    between atoms: _360  and  _362
REMARK  151  A    between atoms: _362  and  _363
REMARK  152  A    between atoms: _362  and  _365
REMARK  153  A    between atoms: _365  and  _366
REMARK  154  A    between atoms: _369  and  _371
REMARK  155  A    between atoms: _371  and  _372
REMARK  156  A    between atoms: _375  and  _377
REMARK  157  A    between atoms: _377  and  _378
REMARK  158  A    between atoms: _377  and  _380
REMARK  159  A    between atoms: _383  and  _385
REMARK  160  A    between atoms: _385  and  _386
REMARK  161  A    between atoms: _388  and  _390
REMARK  162  A    between atoms: _390  and  _391
REMARK  163  A    between atoms: _390  and  _393
REMARK  164  A    between atoms: _393  and  _394
REMARK  165  A    between atoms: _394  and  _395
REMARK  166  A    between atoms: _398  and  _400
REMARK  167  A    between atoms: _400  and  _401
REMARK  168  A    between atoms: _400  and  _403
REMARK  169  A    between atoms: _403  and  _404
REMARK  170  A    between atoms: _404  and  _405
REMARK  171  A    between atoms: _407  and  _409
REMARK  172  A    between atoms: _409  and  _410
REMARK  173  A    between atoms: _409  and  _412
REMARK  174  A    between atoms: _412  and  _413
REMARK  175  A    between atoms: _418  and  _419
REMARK  176  A    between atoms: _421  and  _423
REMARK  177  A    between atoms: _423  and  _424
REMARK  178  A    between atoms: _423  and  _426
REMARK  179  A    between atoms: _426  and  _427
REMARK  180  A    between atoms: _430  and  _432
REMARK  181  A    between atoms: _432  and  _433
REMARK  182  A    between atoms: _432  and  _435
REMARK  183  A    between atoms: _435  and  _436
REMARK  184  A    between atoms: _436  and  _437
REMARK  185  A    between atoms: _439  and  _441
REMARK  186  A    between atoms: _441  and  _442
REMARK  187  A    between atoms: _444  and  _446
REMARK  188  A    between atoms: _446  and  _447
REMARK  189  A    between atoms: _446  and  _449
REMARK  190  A    between atoms: _452  and  _454
REMARK  191  A    between atoms: _454  and  _455
REMARK  192  A    between atoms: _457  and  _459
REMARK  193  A    between atoms: _459  and  _460
REMARK  194  A    between atoms: _459  and  _462
REMARK  195  A    between atoms: _462  and  _463
REMARK  196  A    between atoms: _469  and  _471
REMARK  197  A    between atoms: _471  and  _472
REMARK  198  A    between atoms: _471  and  _474
REMARK  199  A    between atoms: _474  and  _475
REMARK  200  A    between atoms: _478  and  _480
REMARK  201  A    between atoms: _480  and  _481
REMARK  202  A    between atoms: _480  and  _483
REMARK  203  A    between atoms: _485  and  _487
REMARK  204  A    between atoms: _487  and  _488
REMARK  205  A    between atoms: _487  and  _490
REMARK  206  A    between atoms: _493  and  _495
REMARK  207  A    between atoms: _495  and  _496
REMARK  208  A    between atoms: _495  and  _498
REMARK  209  A    between atoms: _498  and  _499
REMARK  210  A    between atoms: _502  and  _504
REMARK  211  A    between atoms: _504  and  _505
REMARK  212  A    between atoms: _504  and  _507
REMARK  213  A    between atoms: _507  and  _508
REMARK  214  A    between atoms: _508  and  _509
REMARK  215  A    between atoms: _509  and  _510
REMARK                            x       y       z     vdW  Elec       q    Type
REMARK                         _______ _______ _______ _____ _____    ______ ____
ROOT
ATOM      1  O   HOH     1      15.663  15.731  13.057  0.00  0.00    +0.000 OA
ENDROOT
TORSDOF 0
REMARK  Name = ../refined-set-2016/3ge7/3ge7_pocket.pdb
REMARK  215 active torsions:
REMARK  status: ('A' for Active; 'I' for Inactive)
REMARK    1  A    between atoms: _1  and  _3
REMARK    2  A    between atoms: _3  and  _4
REMARK    3  A    between atoms: _3  and  _6
REMARK    4  A    between atoms: _6  and  _7
REMARK    5  A    between atoms: _7  and  _8
REMARK    6  A    between atoms: _11  and  _12
REMARK    7  A    between atoms: _17  and  _19
REMARK    8  A    between atoms: _19  and  _20
REMARK    9  A    between atoms: _19  and  _22
REMARK   10  A    between atoms: _25  and  _27
REMARK   11  A    between atoms: _27  and  _28
REMARK   12  A    between atoms: _30  and  _32
REMARK   13  A    between atoms: _32  and  _33
REMARK   14  A    between atoms: _32  and  _35
REMARK   15  A    between atoms: _35  and  _36
REMARK   16  A    between atoms: _39  and  _41
REMARK   17  A    between atoms: _41  and  _42
REMARK   18  A    between atoms: _45  and  _47
REMARK   19  A    between atoms: _47  and  _48
REMARK   20  A    between atoms: _47  and  _50
REMARK   21  A    between atoms: _50  and  _51
REMARK   22  A    between atoms: _51  and  _52
REMARK   23  A    between atoms: _52  and  _53
REMARK   24  A    between atoms: _53  and  _54
REMARK   25  A    between atoms: _58  and  _60
REMARK   26  A    between atoms: _60  and  _61
REMARK   27  A    between atoms: _60  and  _63
REMARK   28  A    between atoms: _63  and  _64
REMARK   29  A    between atoms: _67  and  _69
REMARK   30  A    between atoms: _69  and  _70
REMARK   31  A    between atoms: _72  and  _74
REMARK   32  A    between atoms: _74  and  _75
REMARK   33  A    between atoms: _74  and  _77
REMARK   34  A    between atoms: _77  and  _78
REMARK   35  A    between atoms: _83  and  _85
REMARK   36  A    between atoms: _85  and  _86
REMARK   37  A    between atoms: _85  and  _88
REMARK   38  A    between atoms: _88  and  _89
REMARK   39  A    between atoms: _92  and  _94
REMARK   40  A    between atoms: _94  and  _95
REMARK   41  A    between atoms: _94  and  _97
REMARK   42  A    between atoms: _97  and  _98
REMARK   43  A    between atoms: _103  and  _104
REMARK   44  A    between atoms: _106  and  _108
REMARK   45  A    between atoms: _108  and  _109
REMARK   46  A    between atoms: _108  and  _111
REMARK   47  A    between atoms: _111  and  _112
REMARK   48  A    between atoms: _117  and  _119
REMARK   49  A    between atoms: _119  and  _120
REMARK   50  A    between atoms: _119  and  _122
REMARK   51  A    between atoms: _122  and  _123
REMARK   52  A    between atoms: _126  and  _128
REMARK   53  A    between atoms: _128  and  _129
REMARK   54  A    between atoms: _128  and  _131
REMARK   55  A    between atoms: _131  and  _132
REMARK   56  A    between atoms: _135  and  _137
REMARK   57  A    between atoms: _137  and  _138
REMARK   58  A    between atoms: _137  and  _140
REMARK   59  A    between atoms: _140  and  _141
REMARK   60  A    between atoms: _144  and  _146
REMARK   61  A    between atoms: _146  and  _147
REMARK   62  A    between atoms: _146  and  _149
REMARK   63  A    between atoms: _149  and  _150
REMARK   64  A    between atoms: _153  and  _155
REMARK   65  A    between atoms: _155  and  _156
REMARK   66  A    between atoms: _155  and  _158
REMARK   67  A    between atoms: _158  and  _159
REMARK   68  A    between atoms: _161  and  _163
REMARK   69  A    between atoms: _163  and  _164
REMARK   70  A    between atoms: _166  and  _168
REMARK   71  A    between atoms: _168  and  _169
REMARK   72  A    between atoms: _171  and  _173
REMARK   73  A    between atoms: _173  and  _174
REMARK   74  A    between atoms: _173  and  _176
REMARK   75  A    between atoms: _176  and  _177
REMARK   76  A    between atoms: _182  and  _183
REMARK   77  A    between atoms: _185  and  _187
REMARK   78  A    between atoms: _187  and  _188
REMARK   79  A    between atoms: _187  and  _190
REMARK   80  A    between atoms: _190  and  _191
REMARK   81  A    between atoms: _191  and  _192
REMARK   82  A    between atoms: _197  and  _199
REMARK   83  A    between atoms: _199  and  _200
REMARK   84  A    between atoms: _203  and  _205
REMARK   85  A    between atoms: _205  and  _206
REMARK   86  A    between atoms: _205  and  _208
REMARK   87  A    between atoms: _208  and  _209
REMARK   88  A    between atoms: _209  and  _210
REMARK   89  A    between atoms: _212  and  _214
REMARK   90  A    between atoms: _214  and  _215
REMARK   91  A    between atoms: _218  and  _220
REMARK   92  A    between atoms: _220  and  _221
REMARK   93  A    between atoms: _220  and  _223
REMARK   94  A    between atoms: _223  and  _224
REMARK   95  A    between atoms: _230  and  _232
REMARK   96  A    between atoms: _232  and  _233
REMARK   97  A    between atoms: _232  and  _235
REMARK   98  A    between atoms: _235  and  _236
REMARK   99  A    between atoms: _239  and  _241
REMARK  100  A    between atoms: _241  and  _242
REMARK  101  A    between atoms: _241  and  _244
REMARK  102  A    between atoms: _244  and  _245
REMARK  103  A    between atoms: _245  and  _246
REMARK  104  A    between atoms: _249  and  _251
REMARK  105  A    between atoms: _251  and  _252
REMARK  106  A    between atoms: _251  and  _254
REMARK  107  A    between atoms: _256  and  _258
REMARK  108  A    between atoms: _258  and  _259
REMARK  109  A    between atoms: _258  and  _261
REMARK  110  A    between atoms: _261  and  _262
REMARK  111  A    between atoms: _265  and  _267
REMARK  112  A    between atoms: _267  and  _268
REMARK  113  A    between atoms: _267  and  _270
REMARK  114  A    between atoms: _270  and  _271
REMARK  115  A    between atoms: _273  and  _275
REMARK  116  A    between atoms: _275  and  _276
REMARK  117  A    between atoms: _275  and  _278
REMARK  118  A    between atoms: _278  and  _279
REMARK  119  A    between atoms: _282  and  _284
REMARK  120  A    between atoms: _284  and  _285
REMARK  121  A    between atoms: _284  and  _287
REMARK  122  A    between atoms: _287  and  _288
REMARK  123  A    between atoms: _288  and  _289
REMARK  124  A    between atoms: _294  and  _296
REMARK  125  A    between atoms: _296  and  _297
REMARK  126  A    between atoms: _296  and  _299
REMARK  127  A    between atoms: _299  and  _300
REMARK  128  A    between atoms: _300  and  _301
REMARK  129  A    between atoms: _306  and  _308
REMARK  130  A    between atoms: _308  and  _309
REMARK  131  A    between atoms: _311  and  _313
REMARK  132  A    between atoms: _313  and  _314
REMARK  133  A    between atoms: _313  and  _316
REMARK  134  A    between atoms: _316  and  _317
REMARK  135  A    between atoms: _319  and  _321
REMARK  136  A    between atoms: _321  and  _322
REMARK  137  A    between atoms: _321  and  _324
REMARK  138  A    between atoms: _324  and  _325
REMARK  139  A    between atoms: _325  and  _326
REMARK  140  A    between atoms: _326  and  _327
REMARK  141  A    between atoms: _336  and  _338
REMARK  142  A    between atoms: _338  and  _339
REMARK  143  A    between atoms: _342  and  _344
REMARK  144  A    between atoms: _344  and  _345
REMARK  145  A    between atoms: _344  and  _347
REMARK  146  A    between atoms: _350  and  _352
REMARK  147  A    between atoms: _352  and  _353
REMARK  148  A    between atoms: _355  and  _357
REMARK  149  A    between atoms: _357  and  _358
REMARK  150  A    between atoms: _360  and  _362
REMARK  151  A    between atoms: _362  and  _363
REMARK  152  A    between atoms: _362  and  _365
REMARK  153  A    between atoms: _365  and  _366
REMARK  154  A    between atoms: _369  and  _371
REMARK  155  A    between atoms: _371  and  _372
REMARK  156  A    between atoms: _375  and  _377
REMARK  157  A    between atoms: _377  and  _378
REMARK  158  A    between atoms: _377  and  _380
REMARK  159  A    between atoms: _383  and  _385
REMARK  160  A    between atoms: _385  and  _386
REMARK  161  A    between atoms: _388  and  _390
REMARK  162  A    between atoms: _390  and  _391
REMARK  163  A    between atoms: _390  and  _393
REMARK  164  A    between atoms: _393  and  _394
REMARK  165  A    between atoms: _394  and  _395
REMARK  166  A    between atoms: _398  and  _400
REMARK  167  A    between atoms: _400  and  _401
REMARK  168  A    between atoms: _400  and  _403
REMARK  169  A    between atoms: _403  and  _404
REMARK  170  A    between atoms: _404  and  _405
REMARK  171  A    between atoms: _407  and  _409
REMARK  172  A    between atoms: _409  and  _410
REMARK  173  A    between atoms: _409  and  _412
REMARK  174  A    between atoms: _412  and  _413
REMARK  175  A    between atoms: _418  and  _419
REMARK  176  A    between atoms: _421  and  _423
REMARK  177  A    between atoms: _423  and  _424
REMARK  178  A    between atoms: _423  and  _426
REMARK  179  A    between atoms: _426  and  _427
REMARK  180  A    between atoms: _430  and  _432
REMARK  181  A    between atoms: _432  and  _433
REMARK  182  A    between atoms: _432  and  _435
REMARK  183  A    between atoms: _435  and  _436
REMARK  184  A    between atoms: _436  and  _437
REMARK  185  A    between atoms: _439  and  _441
REMARK  186  A    between atoms: _441  and  _442
REMARK  187  A    between atoms: _444  and  _446
REMARK  188  A    between atoms: _446  and  _447
REMARK  189  A    between atoms: _446  and  _449
REMARK  190  A    between atoms: _452  and  _454
REMARK  191  A    between atoms: _454  and  _455
REMARK  192  A    between atoms: _457  and  _459
REMARK  193  A    between atoms: _459  and  _460
REMARK  194  A    between atoms: _459  and  _462
REMARK  195  A    between atoms: _462  and  _463
REMARK  196  A    between atoms: _469  and  _471
REMARK  197  A    between atoms: _471  and  _472
REMARK  198  A    between atoms: _471  and  _474
REMARK  199  A    between atoms: _474  and  _475
REMARK  200  A    between atoms: _478  and  _480
REMARK  201  A    between atoms: _480  and  _481
REMARK  202  A    between atoms: _480  and  _483
REMARK  203  A    between atoms: _485  and  _487
REMARK  204  A    between atoms: _487  and  _488
REMARK  205  A    between atoms: _487  and  _490
REMARK  206  A    between atoms: _493  and  _495
REMARK  207  A    between atoms: _495  and  _496
REMARK  208  A    between atoms: _495  and  _498
REMARK  209  A    between atoms: _498  and  _499
REMARK  210  A    between atoms: _502  and  _504
REMARK  211  A    between atoms: _504  and  _505
REMARK  212  A    between atoms: _504  and  _507
REMARK  213  A    between atoms: _507  and  _508
REMARK  214  A    between atoms: _508  and  _509
REMARK  215  A    between atoms: _509  and  _510
REMARK                            x       y       z     vdW  Elec       q    Type
REMARK                         _______ _______ _______ _____ _____    ______ ____
ROOT
ATOM      1  O   HOH     1       9.006  14.752   8.429  0.00  0.00    +0.000 OA
ENDROOT
TORSDOF 0
REMARK  Name = ../refined-set-2016/3ge7/3ge7_pocket.pdb
REMARK  215 active torsions:
REMARK  status: ('A' for Active; 'I' for Inactive)
REMARK    1  A    between atoms: _1  and  _3
REMARK    2  A    between atoms: _3  and  _4
REMARK    3  A    between atoms: _3  and  _6
REMARK    4  A    between atoms: _6  and  _7
REMARK    5  A    between atoms: _7  and  _8
REMARK    6  A    between atoms: _11  and  _12
REMARK    7  A    between atoms: _17  and  _19
REMARK    8  A    between atoms: _19  and  _20
REMARK    9  A    between atoms: _19  and  _22
REMARK   10  A    between atoms: _25  and  _27
REMARK   11  A    between atoms: _27  and  _28
REMARK   12  A    between atoms: _30  and  _32
REMARK   13  A    between atoms: _32  and  _33
REMARK   14  A    between atoms: _32  and  _35
REMARK   15  A    between atoms: _35  and  _36
REMARK   16  A    between atoms: _39  and  _41
REMARK   17  A    between atoms: _41  and  _42
REMARK   18  A    between atoms: _45  and  _47
REMARK   19  A    between atoms: _47  and  _48
REMARK   20  A    between atoms: _47  and  _50
REMARK   21  A    between atoms: _50  and  _51
REMARK   22  A    between atoms: _51  and  _52
REMARK   23  A    between atoms: _52  and  _53
REMARK   24  A    between atoms: _53  and  _54
REMARK   25  A    between atoms: _58  and  _60
REMARK   26  A    between atoms: _60  and  _61
REMARK   27  A    between atoms: _60  and  _63
REMARK   28  A    between atoms: _63  and  _64
REMARK   29  A    between atoms: _67  and  _69
REMARK   30  A    between atoms: _69  and  _70
REMARK   31  A    between atoms: _72  and  _74
REMARK   32  A    between atoms: _74  and  _75
REMARK   33  A    between atoms: _74  and  _77
REMARK   34  A    between atoms: _77  and  _78
REMARK   35  A    between atoms: _83  and  _85
REMARK   36  A    between atoms: _85  and  _86
REMARK   37  A    between atoms: _85  and  _88
REMARK   38  A    between atoms: _88  and  _89
REMARK   39  A    between atoms: _92  and  _94
REMARK   40  A    between atoms: _94  and  _95
REMARK   41  A    between atoms: _94  and  _97
REMARK   42  A    between atoms: _97  and  _98
REMARK   43  A    between atoms: _103  and  _104
REMARK   44  A    between atoms: _106  and  _108
REMARK   45  A    between atoms: _108  and  _109
REMARK   46  A    between atoms: _108  and  _111
REMARK   47  A    between atoms: _111  and  _112
REMARK   48  A    between atoms: _117  and  _119
REMARK   49  A    between atoms: _119  and  _120
REMARK   50  A    between atoms: _119  and  _122
REMARK   51  A    between atoms: _122  and  _123
REMARK   52  A    between atoms: _126  and  _128
REMARK   53  A    between atoms: _128  and  _129
REMARK   54  A    between atoms: _128  and  _131
REMARK   55  A    between atoms: _131  and  _132
REMARK   56  A    between atoms: _135  and  _137
REMARK   57  A    between atoms: _137  and  _138
REMARK   58  A    between atoms: _137  and  _140
REMARK   59  A    between atoms: _140  and  _141
REMARK   60  A    between atoms: _144  and  _146
REMARK   61  A    between atoms: _146  and  _147
REMARK   62  A    between atoms: _146  and  _149
REMARK   63  A    between atoms: _149  and  _150
REMARK   64  A    between atoms: _153  and  _155
REMARK   65  A    between atoms: _155  and  _156
REMARK   66  A    between atoms: _155  and  _158
REMARK   67  A    between atoms: _158  and  _159
REMARK   68  A    between atoms: _161  and  _163
REMARK   69  A    between atoms: _163  and  _164
REMARK   70  A    between atoms: _166  and  _168
REMARK   71  A    between atoms: _168  and  _169
REMARK   72  A    between atoms: _171  and  _173
REMARK   73  A    between atoms: _173  and  _174
REMARK   74  A    between atoms: _173  and  _176
REMARK   75  A    between atoms: _176  and  _177
REMARK   76  A    between atoms: _182  and  _183
REMARK   77  A    between atoms: _185  and  _187
REMARK   78  A    between atoms: _187  and  _188
REMARK   79  A    between atoms: _187  and  _190
REMARK   80  A    between atoms: _190  and  _191
REMARK   81  A    between atoms: _191  and  _192
REMARK   82  A    between atoms: _197  and  _199
REMARK   83  A    between atoms: _199  and  _200
REMARK   84  A    between atoms: _203  and  _205
REMARK   85  A    between atoms: _205  and  _206
REMARK   86  A    between atoms: _205  and  _208
REMARK   87  A    between atoms: _208  and  _209
REMARK   88  A    between atoms: _209  and  _210
REMARK   89  A    between atoms: _212  and  _214
REMARK   90  A    between atoms: _214  and  _215
REMARK   91  A    between atoms: _218  and  _220
REMARK   92  A    between atoms: _220  and  _221
REMARK   93  A    between atoms: _220  and  _223
REMARK   94  A    between atoms: _223  and  _224
REMARK   95  A    between atoms: _230  and  _232
REMARK   96  A    between atoms: _232  and  _233
REMARK   97  A    between atoms: _232  and  _235
REMARK   98  A    between atoms: _235  and  _236
REMARK   99  A    between atoms: _239  and  _241
REMARK  100  A    between atoms: _241  and  _242
REMARK  101  A    between atoms: _241  and  _244
REMARK  102  A    between atoms: _244  and  _245
REMARK  103  A    between atoms: _245  and  _246
REMARK  104  A    between atoms: _249  and  _251
REMARK  105  A    between atoms: _251  and  _252
REMARK  106  A    between atoms: _251  and  _254
REMARK  107  A    between atoms: _256  and  _258
REMARK  108  A    between atoms: _258  and  _259
REMARK  109  A    between atoms: _258  and  _261
REMARK  110  A    between atoms: _261  and  _262
REMARK  111  A    between atoms: _265  and  _267
REMARK  112  A    between atoms: _267  and  _268
REMARK  113  A    between atoms: _267  and  _270
REMARK  114  A    between atoms: _270  and  _271
REMARK  115  A    between atoms: _273  and  _275
REMARK  116  A    between atoms: _275  and  _276
REMARK  117  A    between atoms: _275  and  _278
REMARK  118  A    between atoms: _278  and  _279
REMARK  119  A    between atoms: _282  and  _284
REMARK  120  A    between atoms: _284  and  _285
REMARK  121  A    between atoms: _284  and  _287
REMARK  122  A    between atoms: _287  and  _288
REMARK  123  A    between atoms: _288  and  _289
REMARK  124  A    between atoms: _294  and  _296
REMARK  125  A    between atoms: _296  and  _297
REMARK  126  A    between atoms: _296  and  _299
REMARK  127  A    between atoms: _299  and  _300
REMARK  128  A    between atoms: _300  and  _301
REMARK  129  A    between atoms: _306  and  _308
REMARK  130  A    between atoms: _308  and  _309
REMARK  131  A    between atoms: _311  and  _313
REMARK  132  A    between atoms: _313  and  _314
REMARK  133  A    between atoms: _313  and  _316
REMARK  134  A    between atoms: _316  and  _317
REMARK  135  A    between atoms: _319  and  _321
REMARK  136  A    between atoms: _321  and  _322
REMARK  137  A    between atoms: _321  and  _324
REMARK  138  A    between atoms: _324  and  _325
REMARK  139  A    between atoms: _325  and  _326
REMARK  140  A    between atoms: _326  and  _327
REMARK  141  A    between atoms: _336  and  _338
REMARK  142  A    between atoms: _338  and  _339
REMARK  143  A    between atoms: _342  and  _344
REMARK  144  A    between atoms: _344  and  _345
REMARK  145  A    between atoms: _344  and  _347
REMARK  146  A    between atoms: _350  and  _352
REMARK  147  A    between atoms: _352  and  _353
REMARK  148  A    between atoms: _355  and  _357
REMARK  149  A    between atoms: _357  and  _358
REMARK  150  A    between atoms: _360  and  _362
REMARK  151  A    between atoms: _362  and  _363
REMARK  152  A    between atoms: _362  and  _365
REMARK  153  A    between atoms: _365  and  _366
REMARK  154  A    between atoms: _369  and  _371
REMARK  155  A    between atoms: _371  and  _372
REMARK  156  A    between atoms: _375  and  _377
REMARK  157  A    between atoms: _377  and  _378
REMARK  158  A    between atoms: _377  and  _380
REMARK  159  A    between atoms: _383  and  _385
REMARK  160  A    between atoms: _385  and  _386
REMARK  161  A    between atoms: _388  and  _390
REMARK  162  A    between atoms: _390  and  _391
REMARK  163  A    between atoms: _390  and  _393
REMARK  164  A    between atoms: _393  and  _394
REMARK  165  A    between atoms: _394  and  _395
REMARK  166  A    between atoms: _398  and  _400
REMARK  167  A    between atoms: _400  and  _401
REMARK  168  A    between atoms: _400  and  _403
REMARK  169  A    between atoms: _403  and  _404
REMARK  170  A    between atoms: _404  and  _405
REMARK  171  A    between atoms: _407  and  _409
REMARK  172  A    between atoms: _409  and  _410
REMARK  173  A    between atoms: _409  and  _412
REMARK  174  A    between atoms: _412  and  _413
REMARK  175  A    between atoms: _418  and  _419
REMARK  176  A    between atoms: _421  and  _423
REMARK  177  A    between atoms: _423  and  _424
REMARK  178  A    between atoms: _423  and  _426
REMARK  179  A    between atoms: _426  and  _427
REMARK  180  A    between atoms: _430  and  _432
REMARK  181  A    between atoms: _432  and  _433
REMARK  182  A    between atoms: _432  and  _435
REMARK  183  A    between atoms: _435  and  _436
REMARK  184  A    between atoms: _436  and  _437
REMARK  185  A    between atoms: _439  and  _441
REMARK  186  A    between atoms: _441  and  _442
REMARK  187  A    between atoms: _444  and  _446
REMARK  188  A    between atoms: _446  and  _447
REMARK  189  A    between atoms: _446  and  _449
REMARK  190  A    between atoms: _452  and  _454
REMARK  191  A    between atoms: _454  and  _455
REMARK  192  A    between atoms: _457  and  _459
REMARK  193  A    between atoms: _459  and  _460
REMARK  194  A    between atoms: _459  and  _462
REMARK  195  A    between atoms: _462  and  _463
REMARK  196  A    between atoms: _469  and  _471
REMARK  197  A    between atoms: _471  and  _472
REMARK  198  A    between atoms: _471  and  _474
REMARK  199  A    between atoms: _474  and  _475
REMARK  200  A    between atoms: _478  and  _480
REMARK  201  A    between atoms: _480  and  _481
REMARK  202  A    between atoms: _480  and  _483
REMARK  203  A    between atoms: _485  and  _487
REMARK  204  A    between atoms: _487  and  _488
REMARK  205  A    between atoms: _487  and  _490
REMARK  206  A    between atoms: _493  and  _495
REMARK  207  A    between atoms: _495  and  _496
REMARK  208  A    between atoms: _495  and  _498
REMARK  209  A    between atoms: _498  and  _499
REMARK  210  A    between atoms: _502  and  _504
REMARK  211  A    between atoms: _504  and  _505
REMARK  212  A    between atoms: _504  and  _507
REMARK  213  A    between atoms: _507  and  _508
REMARK  214  A    between atoms: _508  and  _509
REMARK  215  A    between atoms: _509  and  _510
REMARK                            x       y       z     vdW  Elec       q    Type
REMARK                         _______ _______ _______ _____ _____    ______ ____
ROOT
ATOM      1  O   HOH     1      24.397  21.668  23.186  0.00  0.00    +0.000 OA
ENDROOT
TORSDOF 0
REMARK  Name = ../refined-set-2016/3ge7/3ge7_pocket.pdb
REMARK  215 active torsions:
REMARK  status: ('A' for Active; 'I' for Inactive)
REMARK    1  A    between atoms: _1  and  _3
REMARK    2  A    between atoms: _3  and  _4
REMARK    3  A    between atoms: _3  and  _6
REMARK    4  A    between atoms: _6  and  _7
REMARK    5  A    between atoms: _7  and  _8
REMARK    6  A    between atoms: _11  and  _12
REMARK    7  A    between atoms: _17  and  _19
REMARK    8  A    between atoms: _19  and  _20
REMARK    9  A    between atoms: _19  and  _22
REMARK   10  A    between atoms: _25  and  _27
REMARK   11  A    between atoms: _27  and  _28
REMARK   12  A    between atoms: _30  and  _32
REMARK   13  A    between atoms: _32  and  _33
REMARK   14  A    between atoms: _32  and  _35
REMARK   15  A    between atoms: _35  and  _36
REMARK   16  A    between atoms: _39  and  _41
REMARK   17  A    between atoms: _41  and  _42
REMARK   18  A    between atoms: _45  and  _47
REMARK   19  A    between atoms: _47  and  _48
REMARK   20  A    between atoms: _47  and  _50
REMARK   21  A    between atoms: _50  and  _51
REMARK   22  A    between atoms: _51  and  _52
REMARK   23  A    between atoms: _52  and  _53
REMARK   24  A    between atoms: _53  and  _54
REMARK   25  A    between atoms: _58  and  _60
REMARK   26  A    between atoms: _60  and  _61
REMARK   27  A    between atoms: _60  and  _63
REMARK   28  A    between atoms: _63  and  _64
REMARK   29  A    between atoms: _67  and  _69
REMARK   30  A    between atoms: _69  and  _70
REMARK   31  A    between atoms: _72  and  _74
REMARK   32  A    between atoms: _74  and  _75
REMARK   33  A    between atoms: _74  and  _77
REMARK   34  A    between atoms: _77  and  _78
REMARK   35  A    between atoms: _83  and  _85
REMARK   36  A    between atoms: _85  and  _86
REMARK   37  A    between atoms: _85  and  _88
REMARK   38  A    between atoms: _88  and  _89
REMARK   39  A    between atoms: _92  and  _94
REMARK   40  A    between atoms: _94  and  _95
REMARK   41  A    between atoms: _94  and  _97
REMARK   42  A    between atoms: _97  and  _98
REMARK   43  A    between atoms: _103  and  _104
REMARK   44  A    between atoms: _106  and  _108
REMARK   45  A    between atoms: _108  and  _109
REMARK   46  A    between atoms: _108  and  _111
REMARK   47  A    between atoms: _111  and  _112
REMARK   48  A    between atoms: _117  and  _119
REMARK   49  A    between atoms: _119  and  _120
REMARK   50  A    between atoms: _119  and  _122
REMARK   51  A    between atoms: _122  and  _123
REMARK   52  A    between atoms: _126  and  _128
REMARK   53  A    between atoms: _128  and  _129
REMARK   54  A    between atoms: _128  and  _131
REMARK   55  A    between atoms: _131  and  _132
REMARK   56  A    between atoms: _135  and  _137
REMARK   57  A    between atoms: _137  and  _138
REMARK   58  A    between atoms: _137  and  _140
REMARK   59  A    between atoms: _140  and  _141
REMARK   60  A    between atoms: _144  and  _146
REMARK   61  A    between atoms: _146  and  _147
REMARK   62  A    between atoms: _146  and  _149
REMARK   63  A    between atoms: _149  and  _150
REMARK   64  A    between atoms: _153  and  _155
REMARK   65  A    between atoms: _155  and  _156
REMARK   66  A    between atoms: _155  and  _158
REMARK   67  A    between atoms: _158  and  _159
REMARK   68  A    between atoms: _161  and  _163
REMARK   69  A    between atoms: _163  and  _164
REMARK   70  A    between atoms: _166  and  _168
REMARK   71  A    between atoms: _168  and  _169
REMARK   72  A    between atoms: _171  and  _173
REMARK   73  A    between atoms: _173  and  _174
REMARK   74  A    between atoms: _173  and  _176
REMARK   75  A    between atoms: _176  and  _177
REMARK   76  A    between atoms: _182  and  _183
REMARK   77  A    between atoms: _185  and  _187
REMARK   78  A    between atoms: _187  and  _188
REMARK   79  A    between atoms: _187  and  _190
REMARK   80  A    between atoms: _190  and  _191
REMARK   81  A    between atoms: _191  and  _192
REMARK   82  A    between atoms: _197  and  _199
REMARK   83  A    between atoms: _199  and  _200
REMARK   84  A    between atoms: _203  and  _205
REMARK   85  A    between atoms: _205  and  _206
REMARK   86  A    between atoms: _205  and  _208
REMARK   87  A    between atoms: _208  and  _209
REMARK   88  A    between atoms: _209  and  _210
REMARK   89  A    between atoms: _212  and  _214
REMARK   90  A    between atoms: _214  and  _215
REMARK   91  A    between atoms: _218  and  _220
REMARK   92  A    between atoms: _220  and  _221
REMARK   93  A    between atoms: _220  and  _223
REMARK   94  A    between atoms: _223  and  _224
REMARK   95  A    between atoms: _230  and  _232
REMARK   96  A    between atoms: _232  and  _233
REMARK   97  A    between atoms: _232  and  _235
REMARK   98  A    between atoms: _235  and  _236
REMARK   99  A    between atoms: _239  and  _241
REMARK  100  A    between atoms: _241  and  _242
REMARK  101  A    between atoms: _241  and  _244
REMARK  102  A    between atoms: _244  and  _245
REMARK  103  A    between atoms: _245  and  _246
REMARK  104  A    between atoms: _249  and  _251
REMARK  105  A    between atoms: _251  and  _252
REMARK  106  A    between atoms: _251  and  _254
REMARK  107  A    between atoms: _256  and  _258
REMARK  108  A    between atoms: _258  and  _259
REMARK  109  A    between atoms: _258  and  _261
REMARK  110  A    between atoms: _261  and  _262
REMARK  111  A    between atoms: _265  and  _267
REMARK  112  A    between atoms: _267  and  _268
REMARK  113  A    between atoms: _267  and  _270
REMARK  114  A    between atoms: _270  and  _271
REMARK  115  A    between atoms: _273  and  _275
REMARK  116  A    between atoms: _275  and  _276
REMARK  117  A    between atoms: _275  and  _278
REMARK  118  A    between atoms: _278  and  _279
REMARK  119  A    between atoms: _282  and  _284
REMARK  120  A    between atoms: _284  and  _285
REMARK  121  A    between atoms: _284  and  _287
REMARK  122  A    between atoms: _287  and  _288
REMARK  123  A    between atoms: _288  and  _289
REMARK  124  A    between atoms: _294  and  _296
REMARK  125  A    between atoms: _296  and  _297
REMARK  126  A    between atoms: _296  and  _299
REMARK  127  A    between atoms: _299  and  _300
REMARK  128  A    between atoms: _300  and  _301
REMARK  129  A    between atoms: _306  and  _308
REMARK  130  A    between atoms: _308  and  _309
REMARK  131  A    between atoms: _311  and  _313
REMARK  132  A    between atoms: _313  and  _314
REMARK  133  A    between atoms: _313  and  _316
REMARK  134  A    between atoms: _316  and  _317
REMARK  135  A    between atoms: _319  and  _321
REMARK  136  A    between atoms: _321  and  _322
REMARK  137  A    between atoms: _321  and  _324
REMARK  138  A    between atoms: _324  and  _325
REMARK  139  A    between atoms: _325  and  _326
REMARK  140  A    between atoms: _326  and  _327
REMARK  141  A    between atoms: _336  and  _338
REMARK  142  A    between atoms: _338  and  _339
REMARK  143  A    between atoms: _342  and  _344
REMARK  144  A    between atoms: _344  and  _345
REMARK  145  A    between atoms: _344  and  _347
REMARK  146  A    between atoms: _350  and  _352
REMARK  147  A    between atoms: _352  and  _353
REMARK  148  A    between atoms: _355  and  _357
REMARK  149  A    between atoms: _357  and  _358
REMARK  150  A    between atoms: _360  and  _362
REMARK  151  A    between atoms: _362  and  _363
REMARK  152  A    between atoms: _362  and  _365
REMARK  153  A    between atoms: _365  and  _366
REMARK  154  A    between atoms: _369  and  _371
REMARK  155  A    between atoms: _371  and  _372
REMARK  156  A    between atoms: _375  and  _377
REMARK  157  A    between atoms: _377  and  _378
REMARK  158  A    between atoms: _377  and  _380
REMARK  159  A    between atoms: _383  and  _385
REMARK  160  A    between atoms: _385  and  _386
REMARK  161  A    between atoms: _388  and  _390
REMARK  162  A    between atoms: _390  and  _391
REMARK  163  A    between atoms: _390  and  _393
REMARK  164  A    between atoms: _393  and  _394
REMARK  165  A    between atoms: _394  and  _395
REMARK  166  A    between atoms: _398  and  _400
REMARK  167  A    between atoms: _400  and  _401
REMARK  168  A    between atoms: _400  and  _403
REMARK  169  A    between atoms: _403  and  _404
REMARK  170  A    between atoms: _404  and  _405
REMARK  171  A    between atoms: _407  and  _409
REMARK  172  A    between atoms: _409  and  _410
REMARK  173  A    between atoms: _409  and  _412
REMARK  174  A    between atoms: _412  and  _413
REMARK  175  A    between atoms: _418  and  _419
REMARK  176  A    between atoms: _421  and  _423
REMARK  177  A    between atoms: _423  and  _424
REMARK  178  A    between atoms: _423  and  _426
REMARK  179  A    between atoms: _426  and  _427
REMARK  180  A    between atoms: _430  and  _432
REMARK  181  A    between atoms: _432  and  _433
REMARK  182  A    between atoms: _432  and  _435
REMARK  183  A    between atoms: _435  and  _436
REMARK  184  A    between atoms: _436  and  _437
REMARK  185  A    between atoms: _439  and  _441
REMARK  186  A    between atoms: _441  and  _442
REMARK  187  A    between atoms: _444  and  _446
REMARK  188  A    between atoms: _446  and  _447
REMARK  189  A    between atoms: _446  and  _449
REMARK  190  A    between atoms: _452  and  _454
REMARK  191  A    between atoms: _454  and  _455
REMARK  192  A    between atoms: _457  and  _459
REMARK  193  A    between atoms: _459  and  _460
REMARK  194  A    between atoms: _459  and  _462
REMARK  195  A    between atoms: _462  and  _463
REMARK  196  A    between atoms: _469  and  _471
REMARK  197  A    between atoms: _471  and  _472
REMARK  198  A    between atoms: _471  and  _474
REMARK  199  A    between atoms: _474  and  _475
REMARK  200  A    between atoms: _478  and  _480
REMARK  201  A    between atoms: _480  and  _481
REMARK  202  A    between atoms: _480  and  _483
REMARK  203  A    between atoms: _485  and  _487
REMARK  204  A    between atoms: _487  and  _488
REMARK  205  A    between atoms: _487  and  _490
REMARK  206  A    between atoms: _493  and  _495
REMARK  207  A    between atoms: _495  and  _496
REMARK  208  A    between atoms: _495  and  _498
REMARK  209  A    between atoms: _498  and  _499
REMARK  210  A    between atoms: _502  and  _504
REMARK  211  A    between atoms: _504  and  _505
REMARK  212  A    between atoms: _504  and  _507
REMARK  213  A    between atoms: _507  and  _508
REMARK  214  A    between atoms: _508  and  _509
REMARK  215  A    between atoms: _509  and  _510
REMARK                            x       y       z     vdW  Elec       q    Type
REMARK                         _______ _______ _______ _____ _____    ______ ____
ROOT
ATOM      1  O   HOH     1       3.471  11.463  15.765  0.00  0.00    +0.000 OA
ENDROOT
TORSDOF 0
REMARK  Name = ../refined-set-2016/3ge7/3ge7_pocket.pdb
REMARK  215 active torsions:
REMARK  status: ('A' for Active; 'I' for Inactive)
REMARK    1  A    between atoms: _1  and  _3
REMARK    2  A    between atoms: _3  and  _4
REMARK    3  A    between atoms: _3  and  _6
REMARK    4  A    between atoms: _6  and  _7
REMARK    5  A    between atoms: _7  and  _8
REMARK    6  A    between atoms: _11  and  _12
REMARK    7  A    between atoms: _17  and  _19
REMARK    8  A    between atoms: _19  and  _20
REMARK    9  A    between atoms: _19  and  _22
REMARK   10  A    between atoms: _25  and  _27
REMARK   11  A    between atoms: _27  and  _28
REMARK   12  A    between atoms: _30  and  _32
REMARK   13  A    between atoms: _32  and  _33
REMARK   14  A    between atoms: _32  and  _35
REMARK   15  A    between atoms: _35  and  _36
REMARK   16  A    between atoms: _39  and  _41
REMARK   17  A    between atoms: _41  and  _42
REMARK   18  A    between atoms: _45  and  _47
REMARK   19  A    between atoms: _47  and  _48
REMARK   20  A    between atoms: _47  and  _50
REMARK   21  A    between atoms: _50  and  _51
REMARK   22  A    between atoms: _51  and  _52
REMARK   23  A    between atoms: _52  and  _53
REMARK   24  A    between atoms: _53  and  _54
REMARK   25  A    between atoms: _58  and  _60
REMARK   26  A    between atoms: _60  and  _61
REMARK   27  A    between atoms: _60  and  _63
REMARK   28  A    between atoms: _63  and  _64
REMARK   29  A    between atoms: _67  and  _69
REMARK   30  A    between atoms: _69  and  _70
REMARK   31  A    between atoms: _72  and  _74
REMARK   32  A    between atoms: _74  and  _75
REMARK   33  A    between atoms: _74  and  _77
REMARK   34  A    between atoms: _77  and  _78
REMARK   35  A    between atoms: _83  and  _85
REMARK   36  A    between atoms: _85  and  _86
REMARK   37  A    between atoms: _85  and  _88
REMARK   38  A    between atoms: _88  and  _89
REMARK   39  A    between atoms: _92  and  _94
REMARK   40  A    between atoms: _94  and  _95
REMARK   41  A    between atoms: _94  and  _97
REMARK   42  A    between atoms: _97  and  _98
REMARK   43  A    between atoms: _103  and  _104
REMARK   44  A    between atoms: _106  and  _108
REMARK   45  A    between atoms: _108  and  _109
REMARK   46  A    between atoms: _108  and  _111
REMARK   47  A    between atoms: _111  and  _112
REMARK   48  A    between atoms: _117  and  _119
REMARK   49  A    between atoms: _119  and  _120
REMARK   50  A    between atoms: _119  and  _122
REMARK   51  A    between atoms: _122  and  _123
REMARK   52  A    between atoms: _126  and  _128
REMARK   53  A    between atoms: _128  and  _129
REMARK   54  A    between atoms: _128  and  _131
REMARK   55  A    between atoms: _131  and  _132
REMARK   56  A    between atoms: _135  and  _137
REMARK   57  A    between atoms: _137  and  _138
REMARK   58  A    between atoms: _137  and  _140
REMARK   59  A    between atoms: _140  and  _141
REMARK   60  A    between atoms: _144  and  _146
REMARK   61  A    between atoms: _146  and  _147
REMARK   62  A    between atoms: _146  and  _149
REMARK   63  A    between atoms: _149  and  _150
REMARK   64  A    between atoms: _153  and  _155
REMARK   65  A    between atoms: _155  and  _156
REMARK   66  A    between atoms: _155  and  _158
REMARK   67  A    between atoms: _158  and  _159
REMARK   68  A    between atoms: _161  and  _163
REMARK   69  A    between atoms: _163  and  _164
REMARK   70  A    between atoms: _166  and  _168
REMARK   71  A    between atoms: _168  and  _169
REMARK   72  A    between atoms: _171  and  _173
REMARK   73  A    between atoms: _173  and  _174
REMARK   74  A    between atoms: _173  and  _176
REMARK   75  A    between atoms: _176  and  _177
REMARK   76  A    between atoms: _182  and  _183
REMARK   77  A    between atoms: _185  and  _187
REMARK   78  A    between atoms: _187  and  _188
REMARK   79  A    between atoms: _187  and  _190
REMARK   80  A    between atoms: _190  and  _191
REMARK   81  A    between atoms: _191  and  _192
REMARK   82  A    between atoms: _197  and  _199
REMARK   83  A    between atoms: _199  and  _200
REMARK   84  A    between atoms: _203  and  _205
REMARK   85  A    between atoms: _205  and  _206
REMARK   86  A    between atoms: _205  and  _208
REMARK   87  A    between atoms: _208  and  _209
REMARK   88  A    between atoms: _209  and  _210
REMARK   89  A    between atoms: _212  and  _214
REMARK   90  A    between atoms: _214  and  _215
REMARK   91  A    between atoms: _218  and  _220
REMARK   92  A    between atoms: _220  and  _221
REMARK   93  A    between atoms: _220  and  _223
REMARK   94  A    between atoms: _223  and  _224
REMARK   95  A    between atoms: _230  and  _232
REMARK   96  A    between atoms: _232  and  _233
REMARK   97  A    between atoms: _232  and  _235
REMARK   98  A    between atoms: _235  and  _236
REMARK   99  A    between atoms: _239  and  _241
REMARK  100  A    between atoms: _241  and  _242
REMARK  101  A    between atoms: _241  and  _244
REMARK  102  A    between atoms: _244  and  _245
REMARK  103  A    between atoms: _245  and  _246
REMARK  104  A    between atoms: _249  and  _251
REMARK  105  A    between atoms: _251  and  _252
REMARK  106  A    between atoms: _251  and  _254
REMARK  107  A    between atoms: _256  and  _258
REMARK  108  A    between atoms: _258  and  _259
REMARK  109  A    between atoms: _258  and  _261
REMARK  110  A    between atoms: _261  and  _262
REMARK  111  A    between atoms: _265  and  _267
REMARK  112  A    between atoms: _267  and  _268
REMARK  113  A    between atoms: _267  and  _270
REMARK  114  A    between atoms: _270  and  _271
REMARK  115  A    between atoms: _273  and  _275
REMARK  116  A    between atoms: _275  and  _276
REMARK  117  A    between atoms: _275  and  _278
REMARK  118  A    between atoms: _278  and  _279
REMARK  119  A    between atoms: _282  and  _284
REMARK  120  A    between atoms: _284  and  _285
REMARK  121  A    between atoms: _284  and  _287
REMARK  122  A    between atoms: _287  and  _288
REMARK  123  A    between atoms: _288  and  _289
REMARK  124  A    between atoms: _294  and  _296
REMARK  125  A    between atoms: _296  and  _297
REMARK  126  A    between atoms: _296  and  _299
REMARK  127  A    between atoms: _299  and  _300
REMARK  128  A    between atoms: _300  and  _301
REMARK  129  A    between atoms: _306  and  _308
REMARK  130  A    between atoms: _308  and  _309
REMARK  131  A    between atoms: _311  and  _313
REMARK  132  A    between atoms: _313  and  _314
REMARK  133  A    between atoms: _313  and  _316
REMARK  134  A    between atoms: _316  and  _317
REMARK  135  A    between atoms: _319  and  _321
REMARK  136  A    between atoms: _321  and  _322
REMARK  137  A    between atoms: _321  and  _324
REMARK  138  A    between atoms: _324  and  _325
REMARK  139  A    between atoms: _325  and  _326
REMARK  140  A    between atoms: _326  and  _327
REMARK  141  A    between atoms: _336  and  _338
REMARK  142  A    between atoms: _338  and  _339
REMARK  143  A    between atoms: _342  and  _344
REMARK  144  A    between atoms: _344  and  _345
REMARK  145  A    between atoms: _344  and  _347
REMARK  146  A    between atoms: _350  and  _352
REMARK  147  A    between atoms: _352  and  _353
REMARK  148  A    between atoms: _355  and  _357
REMARK  149  A    between atoms: _357  and  _358
REMARK  150  A    between atoms: _360  and  _362
REMARK  151  A    between atoms: _362  and  _363
REMARK  152  A    between atoms: _362  and  _365
REMARK  153  A    between atoms: _365  and  _366
REMARK  154  A    between atoms: _369  and  _371
REMARK  155  A    between atoms: _371  and  _372
REMARK  156  A    between atoms: _375  and  _377
REMARK  157  A    between atoms: _377  and  _378
REMARK  158  A    between atoms: _377  and  _380
REMARK  159  A    between atoms: _383  and  _385
REMARK  160  A    between atoms: _385  and  _386
REMARK  161  A    between atoms: _388  and  _390
REMARK  162  A    between atoms: _390  and  _391
REMARK  163  A    between atoms: _390  and  _393
REMARK  164  A    between atoms: _393  and  _394
REMARK  165  A    between atoms: _394  and  _395
REMARK  166  A    between atoms: _398  and  _400
REMARK  167  A    between atoms: _400  and  _401
REMARK  168  A    between atoms: _400  and  _403
REMARK  169  A    between atoms: _403  and  _404
REMARK  170  A    between atoms: _404  and  _405
REMARK  171  A    between atoms: _407  and  _409
REMARK  172  A    between atoms: _409  and  _410
REMARK  173  A    between atoms: _409  and  _412
REMARK  174  A    between atoms: _412  and  _413
REMARK  175  A    between atoms: _418  and  _419
REMARK  176  A    between atoms: _421  and  _423
REMARK  177  A    between atoms: _423  and  _424
REMARK  178  A    between atoms: _423  and  _426
REMARK  179  A    between atoms: _426  and  _427
REMARK  180  A    between atoms: _430  and  _432
REMARK  181  A    between atoms: _432  and  _433
REMARK  182  A    between atoms: _432  and  _435
REMARK  183  A    between atoms: _435  and  _436
REMARK  184  A    between atoms: _436  and  _437
REMARK  185  A    between atoms: _439  and  _441
REMARK  186  A    between atoms: _441  and  _442
REMARK  187  A    between atoms: _444  and  _446
REMARK  188  A    between atoms: _446  and  _447
REMARK  189  A    between atoms: _446  and  _449
REMARK  190  A    between atoms: _452  and  _454
REMARK  191  A    between atoms: _454  and  _455
REMARK  192  A    between atoms: _457  and  _459
REMARK  193  A    between atoms: _459  and  _460
REMARK  194  A    between atoms: _459  and  _462
REMARK  195  A    between atoms: _462  and  _463
REMARK  196  A    between atoms: _469  and  _471
REMARK  197  A    between atoms: _471  and  _472
REMARK  198  A    between atoms: _471  and  _474
REMARK  199  A    between atoms: _474  and  _475
REMARK  200  A    between atoms: _478  and  _480
REMARK  201  A    between atoms: _480  and  _481
REMARK  202  A    between atoms: _480  and  _483
REMARK  203  A    between atoms: _485  and  _487
REMARK  204  A    between atoms: _487  and  _488
REMARK  205  A    between atoms: _487  and  _490
REMARK  206  A    between atoms: _493  and  _495
REMARK  207  A    between atoms: _495  and  _496
REMARK  208  A    between atoms: _495  and  _498
REMARK  209  A    between atoms: _498  and  _499
REMARK  210  A    between atoms: _502  and  _504
REMARK  211  A    between atoms: _504  and  _505
REMARK  212  A    between atoms: _504  and  _507
REMARK  213  A    between atoms: _507  and  _508
REMARK  214  A    between atoms: _508  and  _509
REMARK  215  A    between atoms: _509  and  _510
REMARK                            x       y       z     vdW  Elec       q    Type
REMARK                         _______ _______ _______ _____ _____    ______ ____
ROOT
ATOM      1  O   HOH     1      21.038  16.031  12.112  0.00  0.00    +0.000 OA
ENDROOT
TORSDOF 0
REMARK  Name = ../refined-set-2016/3ge7/3ge7_pocket.pdb
REMARK  215 active torsions:
REMARK  status: ('A' for Active; 'I' for Inactive)
REMARK    1  A    between atoms: _1  and  _3
REMARK    2  A    between atoms: _3  and  _4
REMARK    3  A    between atoms: _3  and  _6
REMARK    4  A    between atoms: _6  and  _7
REMARK    5  A    between atoms: _7  and  _8
REMARK    6  A    between atoms: _11  and  _12
REMARK    7  A    between atoms: _17  and  _19
REMARK    8  A    between atoms: _19  and  _20
REMARK    9  A    between atoms: _19  and  _22
REMARK   10  A    between atoms: _25  and  _27
REMARK   11  A    between atoms: _27  and  _28
REMARK   12  A    between atoms: _30  and  _32
REMARK   13  A    between atoms: _32  and  _33
REMARK   14  A    between atoms: _32  and  _35
REMARK   15  A    between atoms: _35  and  _36
REMARK   16  A    between atoms: _39  and  _41
REMARK   17  A    between atoms: _41  and  _42
REMARK   18  A    between atoms: _45  and  _47
REMARK   19  A    between atoms: _47  and  _48
REMARK   20  A    between atoms: _47  and  _50
REMARK   21  A    between atoms: _50  and  _51
REMARK   22  A    between atoms: _51  and  _52
REMARK   23  A    between atoms: _52  and  _53
REMARK   24  A    between atoms: _53  and  _54
REMARK   25  A    between atoms: _58  and  _60
REMARK   26  A    between atoms: _60  and  _61
REMARK   27  A    between atoms: _60  and  _63
REMARK   28  A    between atoms: _63  and  _64
REMARK   29  A    between atoms: _67  and  _69
REMARK   30  A    between atoms: _69  and  _70
REMARK   31  A    between atoms: _72  and  _74
REMARK   32  A    between atoms: _74  and  _75
REMARK   33  A    between atoms: _74  and  _77
REMARK   34  A    between atoms: _77  and  _78
REMARK   35  A    between atoms: _83  and  _85
REMARK   36  A    between atoms: _85  and  _86
REMARK   37  A    between atoms: _85  and  _88
REMARK   38  A    between atoms: _88  and  _89
REMARK   39  A    between atoms: _92  and  _94
REMARK   40  A    between atoms: _94  and  _95
REMARK   41  A    between atoms: _94  and  _97
REMARK   42  A    between atoms: _97  and  _98
REMARK   43  A    between atoms: _103  and  _104
REMARK   44  A    between atoms: _106  and  _108
REMARK   45  A    between atoms: _108  and  _109
REMARK   46  A    between atoms: _108  and  _111
REMARK   47  A    between atoms: _111  and  _112
REMARK   48  A    between atoms: _117  and  _119
REMARK   49  A    between atoms: _119  and  _120
REMARK   50  A    between atoms: _119  and  _122
REMARK   51  A    between atoms: _122  and  _123
REMARK   52  A    between atoms: _126  and  _128
REMARK   53  A    between atoms: _128  and  _129
REMARK   54  A    between atoms: _128  and  _131
REMARK   55  A    between atoms: _131  and  _132
REMARK   56  A    between atoms: _135  and  _137
REMARK   57  A    between atoms: _137  and  _138
REMARK   58  A    between atoms: _137  and  _140
REMARK   59  A    between atoms: _140  and  _141
REMARK   60  A    between atoms: _144  and  _146
REMARK   61  A    between atoms: _146  and  _147
REMARK   62  A    between atoms: _146  and  _149
REMARK   63  A    between atoms: _149  and  _150
REMARK   64  A    between atoms: _153  and  _155
REMARK   65  A    between atoms: _155  and  _156
REMARK   66  A    between atoms: _155  and  _158
REMARK   67  A    between atoms: _158  and  _159
REMARK   68  A    between atoms: _161  and  _163
REMARK   69  A    between atoms: _163  and  _164
REMARK   70  A    between atoms: _166  and  _168
REMARK   71  A    between atoms: _168  and  _169
REMARK   72  A    between atoms: _171  and  _173
REMARK   73  A    between atoms: _173  and  _174
REMARK   74  A    between atoms: _173  and  _176
REMARK   75  A    between atoms: _176  and  _177
REMARK   76  A    between atoms: _182  and  _183
REMARK   77  A    between atoms: _185  and  _187
REMARK   78  A    between atoms: _187  and  _188
REMARK   79  A    between atoms: _187  and  _190
REMARK   80  A    between atoms: _190  and  _191
REMARK   81  A    between atoms: _191  and  _192
REMARK   82  A    between atoms: _197  and  _199
REMARK   83  A    between atoms: _199  and  _200
REMARK   84  A    between atoms: _203  and  _205
REMARK   85  A    between atoms: _205  and  _206
REMARK   86  A    between atoms: _205  and  _208
REMARK   87  A    between atoms: _208  and  _209
REMARK   88  A    between atoms: _209  and  _210
REMARK   89  A    between atoms: _212  and  _214
REMARK   90  A    between atoms: _214  and  _215
REMARK   91  A    between atoms: _218  and  _220
REMARK   92  A    between atoms: _220  and  _221
REMARK   93  A    between atoms: _220  and  _223
REMARK   94  A    between atoms: _223  and  _224
REMARK   95  A    between atoms: _230  and  _232
REMARK   96  A    between atoms: _232  and  _233
REMARK   97  A    between atoms: _232  and  _235
REMARK   98  A    between atoms: _235  and  _236
REMARK   99  A    between atoms: _239  and  _241
REMARK  100  A    between atoms: _241  and  _242
REMARK  101  A    between atoms: _241  and  _244
REMARK  102  A    between atoms: _244  and  _245
REMARK  103  A    between atoms: _245  and  _246
REMARK  104  A    between atoms: _249  and  _251
REMARK  105  A    between atoms: _251  and  _252
REMARK  106  A    between atoms: _251  and  _254
REMARK  107  A    between atoms: _256  and  _258
REMARK  108  A    between atoms: _258  and  _259
REMARK  109  A    between atoms: _258  and  _261
REMARK  110  A    between atoms: _261  and  _262
REMARK  111  A    between atoms: _265  and  _267
REMARK  112  A    between atoms: _267  and  _268
REMARK  113  A    between atoms: _267  and  _270
REMARK  114  A    between atoms: _270  and  _271
REMARK  115  A    between atoms: _273  and  _275
REMARK  116  A    between atoms: _275  and  _276
REMARK  117  A    between atoms: _275  and  _278
REMARK  118  A    between atoms: _278  and  _279
REMARK  119  A    between atoms: _282  and  _284
REMARK  120  A    between atoms: _284  and  _285
REMARK  121  A    between atoms: _284  and  _287
REMARK  122  A    between atoms: _287  and  _288
REMARK  123  A    between atoms: _288  and  _289
REMARK  124  A    between atoms: _294  and  _296
REMARK  125  A    between atoms: _296  and  _297
REMARK  126  A    between atoms: _296  and  _299
REMARK  127  A    between atoms: _299  and  _300
REMARK  128  A    between atoms: _300  and  _301
REMARK  129  A    between atoms: _306  and  _308
REMARK  130  A    between atoms: _308  and  _309
REMARK  131  A    between atoms: _311  and  _313
REMARK  132  A    between atoms: _313  and  _314
REMARK  133  A    between atoms: _313  and  _316
REMARK  134  A    between atoms: _316  and  _317
REMARK  135  A    between atoms: _319  and  _321
REMARK  136  A    between atoms: _321  and  _322
REMARK  137  A    between atoms: _321  and  _324
REMARK  138  A    between atoms: _324  and  _325
REMARK  139  A    between atoms: _325  and  _326
REMARK  140  A    between atoms: _326  and  _327
REMARK  141  A    between atoms: _336  and  _338
REMARK  142  A    between atoms: _338  and  _339
REMARK  143  A    between atoms: _342  and  _344
REMARK  144  A    between atoms: _344  and  _345
REMARK  145  A    between atoms: _344  and  _347
REMARK  146  A    between atoms: _350  and  _352
REMARK  147  A    between atoms: _352  and  _353
REMARK  148  A    between atoms: _355  and  _357
REMARK  149  A    between atoms: _357  and  _358
REMARK  150  A    between atoms: _360  and  _362
REMARK  151  A    between atoms: _362  and  _363
REMARK  152  A    between atoms: _362  and  _365
REMARK  153  A    between atoms: _365  and  _366
REMARK  154  A    between atoms: _369  and  _371
REMARK  155  A    between atoms: _371  and  _372
REMARK  156  A    between atoms: _375  and  _377
REMARK  157  A    between atoms: _377  and  _378
REMARK  158  A    between atoms: _377  and  _380
REMARK  159  A    between atoms: _383  and  _385
REMARK  160  A    between atoms: _385  and  _386
REMARK  161  A    between atoms: _388  and  _390
REMARK  162  A    between atoms: _390  and  _391
REMARK  163  A    between atoms: _390  and  _393
REMARK  164  A    between atoms: _393  and  _394
REMARK  165  A    between atoms: _394  and  _395
REMARK  166  A    between atoms: _398  and  _400
REMARK  167  A    between atoms: _400  and  _401
REMARK  168  A    between atoms: _400  and  _403
REMARK  169  A    between atoms: _403  and  _404
REMARK  170  A    between atoms: _404  and  _405
REMARK  171  A    between atoms: _407  and  _409
REMARK  172  A    between atoms: _409  and  _410
REMARK  173  A    between atoms: _409  and  _412
REMARK  174  A    between atoms: _412  and  _413
REMARK  175  A    between atoms: _418  and  _419
REMARK  176  A    between atoms: _421  and  _423
REMARK  177  A    between atoms: _423  and  _424
REMARK  178  A    between atoms: _423  and  _426
REMARK  179  A    between atoms: _426  and  _427
REMARK  180  A    between atoms: _430  and  _432
REMARK  181  A    between atoms: _432  and  _433
REMARK  182  A    between atoms: _432  and  _435
REMARK  183  A    between atoms: _435  and  _436
REMARK  184  A    between atoms: _436  and  _437
REMARK  185  A    between atoms: _439  and  _441
REMARK  186  A    between atoms: _441  and  _442
REMARK  187  A    between atoms: _444  and  _446
REMARK  188  A    between atoms: _446  and  _447
REMARK  189  A    between atoms: _446  and  _449
REMARK  190  A    between atoms: _452  and  _454
REMARK  191  A    between atoms: _454  and  _455
REMARK  192  A    between atoms: _457  and  _459
REMARK  193  A    between atoms: _459  and  _460
REMARK  194  A    between atoms: _459  and  _462
REMARK  195  A    between atoms: _462  and  _463
REMARK  196  A    between atoms: _469  and  _471
REMARK  197  A    between atoms: _471  and  _472
REMARK  198  A    between atoms: _471  and  _474
REMARK  199  A    between atoms: _474  and  _475
REMARK  200  A    between atoms: _478  and  _480
REMARK  201  A    between atoms: _480  and  _481
REMARK  202  A    between atoms: _480  and  _483
REMARK  203  A    between atoms: _485  and  _487
REMARK  204  A    between atoms: _487  and  _488
REMARK  205  A    between atoms: _487  and  _490
REMARK  206  A    between atoms: _493  and  _495
REMARK  207  A    between atoms: _495  and  _496
REMARK  208  A    between atoms: _495  and  _498
REMARK  209  A    between atoms: _498  and  _499
REMARK  210  A    between atoms: _502  and  _504
REMARK  211  A    between atoms: _504  and  _505
REMARK  212  A    between atoms: _504  and  _507
REMARK  213  A    between atoms: _507  and  _508
REMARK  214  A    between atoms: _508  and  _509
REMARK  215  A    between atoms: _509  and  _510
REMARK                            x       y       z     vdW  Elec       q    Type
REMARK                         _______ _______ _______ _____ _____    ______ ____
ROOT
ATOM      1  O   HOH     1      20.938  21.127  29.507  0.00  0.00    +0.000 OA
ENDROOT
TORSDOF 0
REMARK  Name = ../refined-set-2016/3ge7/3ge7_pocket.pdb
REMARK  215 active torsions:
REMARK  status: ('A' for Active; 'I' for Inactive)
REMARK    1  A    between atoms: _1  and  _3
REMARK    2  A    between atoms: _3  and  _4
REMARK    3  A    between atoms: _3  and  _6
REMARK    4  A    between atoms: _6  and  _7
REMARK    5  A    between atoms: _7  and  _8
REMARK    6  A    between atoms: _11  and  _12
REMARK    7  A    between atoms: _17  and  _19
REMARK    8  A    between atoms: _19  and  _20
REMARK    9  A    between atoms: _19  and  _22
REMARK   10  A    between atoms: _25  and  _27
REMARK   11  A    between atoms: _27  and  _28
REMARK   12  A    between atoms: _30  and  _32
REMARK   13  A    between atoms: _32  and  _33
REMARK   14  A    between atoms: _32  and  _35
REMARK   15  A    between atoms: _35  and  _36
REMARK   16  A    between atoms: _39  and  _41
REMARK   17  A    between atoms: _41  and  _42
REMARK   18  A    between atoms: _45  and  _47
REMARK   19  A    between atoms: _47  and  _48
REMARK   20  A    between atoms: _47  and  _50
REMARK   21  A    between atoms: _50  and  _51
REMARK   22  A    between atoms: _51  and  _52
REMARK   23  A    between atoms: _52  and  _53
REMARK   24  A    between atoms: _53  and  _54
REMARK   25  A    between atoms: _58  and  _60
REMARK   26  A    between atoms: _60  and  _61
REMARK   27  A    between atoms: _60  and  _63
REMARK   28  A    between atoms: _63  and  _64
REMARK   29  A    between atoms: _67  and  _69
REMARK   30  A    between atoms: _69  and  _70
REMARK   31  A    between atoms: _72  and  _74
REMARK   32  A    between atoms: _74  and  _75
REMARK   33  A    between atoms: _74  and  _77
REMARK   34  A    between atoms: _77  and  _78
REMARK   35  A    between atoms: _83  and  _85
REMARK   36  A    between atoms: _85  and  _86
REMARK   37  A    between atoms: _85  and  _88
REMARK   38  A    between atoms: _88  and  _89
REMARK   39  A    between atoms: _92  and  _94
REMARK   40  A    between atoms: _94  and  _95
REMARK   41  A    between atoms: _94  and  _97
REMARK   42  A    between atoms: _97  and  _98
REMARK   43  A    between atoms: _103  and  _104
REMARK   44  A    between atoms: _106  and  _108
REMARK   45  A    between atoms: _108  and  _109
REMARK   46  A    between atoms: _108  and  _111
REMARK   47  A    between atoms: _111  and  _112
REMARK   48  A    between atoms: _117  and  _119
REMARK   49  A    between atoms: _119  and  _120
REMARK   50  A    between atoms: _119  and  _122
REMARK   51  A    between atoms: _122  and  _123
REMARK   52  A    between atoms: _126  and  _128
REMARK   53  A    between atoms: _128  and  _129
REMARK   54  A    between atoms: _128  and  _131
REMARK   55  A    between atoms: _131  and  _132
REMARK   56  A    between atoms: _135  and  _137
REMARK   57  A    between atoms: _137  and  _138
REMARK   58  A    between atoms: _137  and  _140
REMARK   59  A    between atoms: _140  and  _141
REMARK   60  A    between atoms: _144  and  _146
REMARK   61  A    between atoms: _146  and  _147
REMARK   62  A    between atoms: _146  and  _149
REMARK   63  A    between atoms: _149  and  _150
REMARK   64  A    between atoms: _153  and  _155
REMARK   65  A    between atoms: _155  and  _156
REMARK   66  A    between atoms: _155  and  _158
REMARK   67  A    between atoms: _158  and  _159
REMARK   68  A    between atoms: _161  and  _163
REMARK   69  A    between atoms: _163  and  _164
REMARK   70  A    between atoms: _166  and  _168
REMARK   71  A    between atoms: _168  and  _169
REMARK   72  A    between atoms: _171  and  _173
REMARK   73  A    between atoms: _173  and  _174
REMARK   74  A    between atoms: _173  and  _176
REMARK   75  A    between atoms: _176  and  _177
REMARK   76  A    between atoms: _182  and  _183
REMARK   77  A    between atoms: _185  and  _187
REMARK   78  A    between atoms: _187  and  _188
REMARK   79  A    between atoms: _187  and  _190
REMARK   80  A    between atoms: _190  and  _191
REMARK   81  A    between atoms: _191  and  _192
REMARK   82  A    between atoms: _197  and  _199
REMARK   83  A    between atoms: _199  and  _200
REMARK   84  A    between atoms: _203  and  _205
REMARK   85  A    between atoms: _205  and  _206
REMARK   86  A    between atoms: _205  and  _208
REMARK   87  A    between atoms: _208  and  _209
REMARK   88  A    between atoms: _209  and  _210
REMARK   89  A    between atoms: _212  and  _214
REMARK   90  A    between atoms: _214  and  _215
REMARK   91  A    between atoms: _218  and  _220
REMARK   92  A    between atoms: _220  and  _221
REMARK   93  A    between atoms: _220  and  _223
REMARK   94  A    between atoms: _223  and  _224
REMARK   95  A    between atoms: _230  and  _232
REMARK   96  A    between atoms: _232  and  _233
REMARK   97  A    between atoms: _232  and  _235
REMARK   98  A    between atoms: _235  and  _236
REMARK   99  A    between atoms: _239  and  _241
REMARK  100  A    between atoms: _241  and  _242
REMARK  101  A    between atoms: _241  and  _244
REMARK  102  A    between atoms: _244  and  _245
REMARK  103  A    between atoms: _245  and  _246
REMARK  104  A    between atoms: _249  and  _251
REMARK  105  A    between atoms: _251  and  _252
REMARK  106  A    between atoms: _251  and  _254
REMARK  107  A    between atoms: _256  and  _258
REMARK  108  A    between atoms: _258  and  _259
REMARK  109  A    between atoms: _258  and  _261
REMARK  110  A    between atoms: _261  and  _262
REMARK  111  A    between atoms: _265  and  _267
REMARK  112  A    between atoms: _267  and  _268
REMARK  113  A    between atoms: _267  and  _270
REMARK  114  A    between atoms: _270  and  _271
REMARK  115  A    between atoms: _273  and  _275
REMARK  116  A    between atoms: _275  and  _276
REMARK  117  A    between atoms: _275  and  _278
REMARK  118  A    between atoms: _278  and  _279
REMARK  119  A    between atoms: _282  and  _284
REMARK  120  A    between atoms: _284  and  _285
REMARK  121  A    between atoms: _284  and  _287
REMARK  122  A    between atoms: _287  and  _288
REMARK  123  A    between atoms: _288  and  _289
REMARK  124  A    between atoms: _294  and  _296
REMARK  125  A    between atoms: _296  and  _297
REMARK  126  A    between atoms: _296  and  _299
REMARK  127  A    between atoms: _299  and  _300
REMARK  128  A    between atoms: _300  and  _301
REMARK  129  A    between atoms: _306  and  _308
REMARK  130  A    between atoms: _308  and  _309
REMARK  131  A    between atoms: _311  and  _313
REMARK  132  A    between atoms: _313  and  _314
REMARK  133  A    between atoms: _313  and  _316
REMARK  134  A    between atoms: _316  and  _317
REMARK  135  A    between atoms: _319  and  _321
REMARK  136  A    between atoms: _321  and  _322
REMARK  137  A    between atoms: _321  and  _324
REMARK  138  A    between atoms: _324  and  _325
REMARK  139  A    between atoms: _325  and  _326
REMARK  140  A    between atoms: _326  and  _327
REMARK  141  A    between atoms: _336  and  _338
REMARK  142  A    between atoms: _338  and  _339
REMARK  143  A    between atoms: _342  and  _344
REMARK  144  A    between atoms: _344  and  _345
REMARK  145  A    between atoms: _344  and  _347
REMARK  146  A    between atoms: _350  and  _352
REMARK  147  A    between atoms: _352  and  _353
REMARK  148  A    between atoms: _355  and  _357
REMARK  149  A    between atoms: _357  and  _358
REMARK  150  A    between atoms: _360  and  _362
REMARK  151  A    between atoms: _362  and  _363
REMARK  152  A    between atoms: _362  and  _365
REMARK  153  A    between atoms: _365  and  _366
REMARK  154  A    between atoms: _369  and  _371
REMARK  155  A    between atoms: _371  and  _372
REMARK  156  A    between atoms: _375  and  _377
REMARK  157  A    between atoms: _377  and  _378
REMARK  158  A    between atoms: _377  and  _380
REMARK  159  A    between atoms: _383  and  _385
REMARK  160  A    between atoms: _385  and  _386
REMARK  161  A    between atoms: _388  and  _390
REMARK  162  A    between atoms: _390  and  _391
REMARK  163  A    between atoms: _390  and  _393
REMARK  164  A    between atoms: _393  and  _394
REMARK  165  A    between atoms: _394  and  _395
REMARK  166  A    between atoms: _398  and  _400
REMARK  167  A    between atoms: _400  and  _401
REMARK  168  A    between atoms: _400  and  _403
REMARK  169  A    between atoms: _403  and  _404
REMARK  170  A    between atoms: _404  and  _405
REMARK  171  A    between atoms: _407  and  _409
REMARK  172  A    between atoms: _409  and  _410
REMARK  173  A    between atoms: _409  and  _412
REMARK  174  A    between atoms: _412  and  _413
REMARK  175  A    between atoms: _418  and  _419
REMARK  176  A    between atoms: _421  and  _423
REMARK  177  A    between atoms: _423  and  _424
REMARK  178  A    between atoms: _423  and  _426
REMARK  179  A    between atoms: _426  and  _427
REMARK  180  A    between atoms: _430  and  _432
REMARK  181  A    between atoms: _432  and  _433
REMARK  182  A    between atoms: _432  and  _435
REMARK  183  A    between atoms: _435  and  _436
REMARK  184  A    between atoms: _436  and  _437
REMARK  185  A    between atoms: _439  and  _441
REMARK  186  A    between atoms: _441  and  _442
REMARK  187  A    between atoms: _444  and  _446
REMARK  188  A    between atoms: _446  and  _447
REMARK  189  A    between atoms: _446  and  _449
REMARK  190  A    between atoms: _452  and  _454
REMARK  191  A    between atoms: _454  and  _455
REMARK  192  A    between atoms: _457  and  _459
REMARK  193  A    between atoms: _459  and  _460
REMARK  194  A    between atoms: _459  and  _462
REMARK  195  A    between atoms: _462  and  _463
REMARK  196  A    between atoms: _469  and  _471
REMARK  197  A    between atoms: _471  and  _472
REMARK  198  A    between atoms: _471  and  _474
REMARK  199  A    between atoms: _474  and  _475
REMARK  200  A    between atoms: _478  and  _480
REMARK  201  A    between atoms: _480  and  _481
REMARK  202  A    between atoms: _480  and  _483
REMARK  203  A    between atoms: _485  and  _487
REMARK  204  A    between atoms: _487  and  _488
REMARK  205  A    between atoms: _487  and  _490
REMARK  206  A    between atoms: _493  and  _495
REMARK  207  A    between atoms: _495  and  _496
REMARK  208  A    between atoms: _495  and  _498
REMARK  209  A    between atoms: _498  and  _499
REMARK  210  A    between atoms: _502  and  _504
REMARK  211  A    between atoms: _504  and  _505
REMARK  212  A    between atoms: _504  and  _507
REMARK  213  A    between atoms: _507  and  _508
REMARK  214  A    between atoms: _508  and  _509
REMARK  215  A    between atoms: _509  and  _510
REMARK                            x       y       z     vdW  Elec       q    Type
REMARK                         _______ _______ _______ _____ _____    ______ ____
ROOT
ATOM      1  O   HOH     1      15.195  16.534  15.702  0.00  0.00    +0.000 OA
ENDROOT
TORSDOF 0
REMARK  Name = ../refined-set-2016/3ge7/3ge7_pocket.pdb
REMARK  215 active torsions:
REMARK  status: ('A' for Active; 'I' for Inactive)
REMARK    1  A    between atoms: _1  and  _3
REMARK    2  A    between atoms: _3  and  _4
REMARK    3  A    between atoms: _3  and  _6
REMARK    4  A    between atoms: _6  and  _7
REMARK    5  A    between atoms: _7  and  _8
REMARK    6  A    between atoms: _11  and  _12
REMARK    7  A    between atoms: _17  and  _19
REMARK    8  A    between atoms: _19  and  _20
REMARK    9  A    between atoms: _19  and  _22
REMARK   10  A    between atoms: _25  and  _27
REMARK   11  A    between atoms: _27  and  _28
REMARK   12  A    between atoms: _30  and  _32
REMARK   13  A    between atoms: _32  and  _33
REMARK   14  A    between atoms: _32  and  _35
REMARK   15  A    between atoms: _35  and  _36
REMARK   16  A    between atoms: _39  and  _41
REMARK   17  A    between atoms: _41  and  _42
REMARK   18  A    between atoms: _45  and  _47
REMARK   19  A    between atoms: _47  and  _48
REMARK   20  A    between atoms: _47  and  _50
REMARK   21  A    between atoms: _50  and  _51
REMARK   22  A    between atoms: _51  and  _52
REMARK   23  A    between atoms: _52  and  _53
REMARK   24  A    between atoms: _53  and  _54
REMARK   25  A    between atoms: _58  and  _60
REMARK   26  A    between atoms: _60  and  _61
REMARK   27  A    between atoms: _60  and  _63
REMARK   28  A    between atoms: _63  and  _64
REMARK   29  A    between atoms: _67  and  _69
REMARK   30  A    between atoms: _69  and  _70
REMARK   31  A    between atoms: _72  and  _74
REMARK   32  A    between atoms: _74  and  _75
REMARK   33  A    between atoms: _74  and  _77
REMARK   34  A    between atoms: _77  and  _78
REMARK   35  A    between atoms: _83  and  _85
REMARK   36  A    between atoms: _85  and  _86
REMARK   37  A    between atoms: _85  and  _88
REMARK   38  A    between atoms: _88  and  _89
REMARK   39  A    between atoms: _92  and  _94
REMARK   40  A    between atoms: _94  and  _95
REMARK   41  A    between atoms: _94  and  _97
REMARK   42  A    between atoms: _97  and  _98
REMARK   43  A    between atoms: _103  and  _104
REMARK   44  A    between atoms: _106  and  _108
REMARK   45  A    between atoms: _108  and  _109
REMARK   46  A    between atoms: _108  and  _111
REMARK   47  A    between atoms: _111  and  _112
REMARK   48  A    between atoms: _117  and  _119
REMARK   49  A    between atoms: _119  and  _120
REMARK   50  A    between atoms: _119  and  _122
REMARK   51  A    between atoms: _122  and  _123
REMARK   52  A    between atoms: _126  and  _128
REMARK   53  A    between atoms: _128  and  _129
REMARK   54  A    between atoms: _128  and  _131
REMARK   55  A    between atoms: _131  and  _132
REMARK   56  A    between atoms: _135  and  _137
REMARK   57  A    between atoms: _137  and  _138
REMARK   58  A    between atoms: _137  and  _140
REMARK   59  A    between atoms: _140  and  _141
REMARK   60  A    between atoms: _144  and  _146
REMARK   61  A    between atoms: _146  and  _147
REMARK   62  A    between atoms: _146  and  _149
REMARK   63  A    between atoms: _149  and  _150
REMARK   64  A    between atoms: _153  and  _155
REMARK   65  A    between atoms: _155  and  _156
REMARK   66  A    between atoms: _155  and  _158
REMARK   67  A    between atoms: _158  and  _159
REMARK   68  A    between atoms: _161  and  _163
REMARK   69  A    between atoms: _163  and  _164
REMARK   70  A    between atoms: _166  and  _168
REMARK   71  A    between atoms: _168  and  _169
REMARK   72  A    between atoms: _171  and  _173
REMARK   73  A    between atoms: _173  and  _174
REMARK   74  A    between atoms: _173  and  _176
REMARK   75  A    between atoms: _176  and  _177
REMARK   76  A    between atoms: _182  and  _183
REMARK   77  A    between atoms: _185  and  _187
REMARK   78  A    between atoms: _187  and  _188
REMARK   79  A    between atoms: _187  and  _190
REMARK   80  A    between atoms: _190  and  _191
REMARK   81  A    between atoms: _191  and  _192
REMARK   82  A    between atoms: _197  and  _199
REMARK   83  A    between atoms: _199  and  _200
REMARK   84  A    between atoms: _203  and  _205
REMARK   85  A    between atoms: _205  and  _206
REMARK   86  A    between atoms: _205  and  _208
REMARK   87  A    between atoms: _208  and  _209
REMARK   88  A    between atoms: _209  and  _210
REMARK   89  A    between atoms: _212  and  _214
REMARK   90  A    between atoms: _214  and  _215
REMARK   91  A    between atoms: _218  and  _220
REMARK   92  A    between atoms: _220  and  _221
REMARK   93  A    between atoms: _220  and  _223
REMARK   94  A    between atoms: _223  and  _224
REMARK   95  A    between atoms: _230  and  _232
REMARK   96  A    between atoms: _232  and  _233
REMARK   97  A    between atoms: _232  and  _235
REMARK   98  A    between atoms: _235  and  _236
REMARK   99  A    between atoms: _239  and  _241
REMARK  100  A    between atoms: _241  and  _242
REMARK  101  A    between atoms: _241  and  _244
REMARK  102  A    between atoms: _244  and  _245
REMARK  103  A    between atoms: _245  and  _246
REMARK  104  A    between atoms: _249  and  _251
REMARK  105  A    between atoms: _251  and  _252
REMARK  106  A    between atoms: _251  and  _254
REMARK  107  A    between atoms: _256  and  _258
REMARK  108  A    between atoms: _258  and  _259
REMARK  109  A    between atoms: _258  and  _261
REMARK  110  A    between atoms: _261  and  _262
REMARK  111  A    between atoms: _265  and  _267
REMARK  112  A    between atoms: _267  and  _268
REMARK  113  A    between atoms: _267  and  _270
REMARK  114  A    between atoms: _270  and  _271
REMARK  115  A    between atoms: _273  and  _275
REMARK  116  A    between atoms: _275  and  _276
REMARK  117  A    between atoms: _275  and  _278
REMARK  118  A    between atoms: _278  and  _279
REMARK  119  A    between atoms: _282  and  _284
REMARK  120  A    between atoms: _284  and  _285
REMARK  121  A    between atoms: _284  and  _287
REMARK  122  A    between atoms: _287  and  _288
REMARK  123  A    between atoms: _288  and  _289
REMARK  124  A    between atoms: _294  and  _296
REMARK  125  A    between atoms: _296  and  _297
REMARK  126  A    between atoms: _296  and  _299
REMARK  127  A    between atoms: _299  and  _300
REMARK  128  A    between atoms: _300  and  _301
REMARK  129  A    between atoms: _306  and  _308
REMARK  130  A    between atoms: _308  and  _309
REMARK  131  A    between atoms: _311  and  _313
REMARK  132  A    between atoms: _313  and  _314
REMARK  133  A    between atoms: _313  and  _316
REMARK  134  A    between atoms: _316  and  _317
REMARK  135  A    between atoms: _319  and  _321
REMARK  136  A    between atoms: _321  and  _322
REMARK  137  A    between atoms: _321  and  _324
REMARK  138  A    between atoms: _324  and  _325
REMARK  139  A    between atoms: _325  and  _326
REMARK  140  A    between atoms: _326  and  _327
REMARK  141  A    between atoms: _336  and  _338
REMARK  142  A    between atoms: _338  and  _339
REMARK  143  A    between atoms: _342  and  _344
REMARK  144  A    between atoms: _344  and  _345
REMARK  145  A    between atoms: _344  and  _347
REMARK  146  A    between atoms: _350  and  _352
REMARK  147  A    between atoms: _352  and  _353
REMARK  148  A    between atoms: _355  and  _357
REMARK  149  A    between atoms: _357  and  _358
REMARK  150  A    between atoms: _360  and  _362
REMARK  151  A    between atoms: _362  and  _363
REMARK  152  A    between atoms: _362  and  _365
REMARK  153  A    between atoms: _365  and  _366
REMARK  154  A    between atoms: _369  and  _371
REMARK  155  A    between atoms: _371  and  _372
REMARK  156  A    between atoms: _375  and  _377
REMARK  157  A    between atoms: _377  and  _378
REMARK  158  A    between atoms: _377  and  _380
REMARK  159  A    between atoms: _383  and  _385
REMARK  160  A    between atoms: _385  and  _386
REMARK  161  A    between atoms: _388  and  _390
REMARK  162  A    between atoms: _390  and  _391
REMARK  163  A    between atoms: _390  and  _393
REMARK  164  A    between atoms: _393  and  _394
REMARK  165  A    between atoms: _394  and  _395
REMARK  166  A    between atoms: _398  and  _400
REMARK  167  A    between atoms: _400  and  _401
REMARK  168  A    between atoms: _400  and  _403
REMARK  169  A    between atoms: _403  and  _404
REMARK  170  A    between atoms: _404  and  _405
REMARK  171  A    between atoms: _407  and  _409
REMARK  172  A    between atoms: _409  and  _410
REMARK  173  A    between atoms: _409  and  _412
REMARK  174  A    between atoms: _412  and  _413
REMARK  175  A    between atoms: _418  and  _419
REMARK  176  A    between atoms: _421  and  _423
REMARK  177  A    between atoms: _423  and  _424
REMARK  178  A    between atoms: _423  and  _426
REMARK  179  A    between atoms: _426  and  _427
REMARK  180  A    between atoms: _430  and  _432
REMARK  181  A    between atoms: _432  and  _433
REMARK  182  A    between atoms: _432  and  _435
REMARK  183  A    between atoms: _435  and  _436
REMARK  184  A    between atoms: _436  and  _437
REMARK  185  A    between atoms: _439  and  _441
REMARK  186  A    between atoms: _441  and  _442
REMARK  187  A    between atoms: _444  and  _446
REMARK  188  A    between atoms: _446  and  _447
REMARK  189  A    between atoms: _446  and  _449
REMARK  190  A    between atoms: _452  and  _454
REMARK  191  A    between atoms: _454  and  _455
REMARK  192  A    between atoms: _457  and  _459
REMARK  193  A    between atoms: _459  and  _460
REMARK  194  A    between atoms: _459  and  _462
REMARK  195  A    between atoms: _462  and  _463
REMARK  196  A    between atoms: _469  and  _471
REMARK  197  A    between atoms: _471  and  _472
REMARK  198  A    between atoms: _471  and  _474
REMARK  199  A    between atoms: _474  and  _475
REMARK  200  A    between atoms: _478  and  _480
REMARK  201  A    between atoms: _480  and  _481
REMARK  202  A    between atoms: _480  and  _483
REMARK  203  A    between atoms: _485  and  _487
REMARK  204  A    between atoms: _487  and  _488
REMARK  205  A    between atoms: _487  and  _490
REMARK  206  A    between atoms: _493  and  _495
REMARK  207  A    between atoms: _495  and  _496
REMARK  208  A    between atoms: _495  and  _498
REMARK  209  A    between atoms: _498  and  _499
REMARK  210  A    between atoms: _502  and  _504
REMARK  211  A    between atoms: _504  and  _505
REMARK  212  A    between atoms: _504  and  _507
REMARK  213  A    between atoms: _507  and  _508
REMARK  214  A    between atoms: _508  and  _509
REMARK  215  A    between atoms: _509  and  _510
REMARK                            x       y       z     vdW  Elec       q    Type
REMARK                         _______ _______ _______ _____ _____    ______ ____
ROOT
ATOM      1  O   HOH     1       8.353  13.380  20.466  0.00  0.00    +0.000 OA
ENDROOT
TORSDOF 0
REMARK  Name = ../refined-set-2016/3ge7/3ge7_pocket.pdb
REMARK  215 active torsions:
REMARK  status: ('A' for Active; 'I' for Inactive)
REMARK    1  A    between atoms: _1  and  _3
REMARK    2  A    between atoms: _3  and  _4
REMARK    3  A    between atoms: _3  and  _6
REMARK    4  A    between atoms: _6  and  _7
REMARK    5  A    between atoms: _7  and  _8
REMARK    6  A    between atoms: _11  and  _12
REMARK    7  A    between atoms: _17  and  _19
REMARK    8  A    between atoms: _19  and  _20
REMARK    9  A    between atoms: _19  and  _22
REMARK   10  A    between atoms: _25  and  _27
REMARK   11  A    between atoms: _27  and  _28
REMARK   12  A    between atoms: _30  and  _32
REMARK   13  A    between atoms: _32  and  _33
REMARK   14  A    between atoms: _32  and  _35
REMARK   15  A    between atoms: _35  and  _36
REMARK   16  A    between atoms: _39  and  _41
REMARK   17  A    between atoms: _41  and  _42
REMARK   18  A    between atoms: _45  and  _47
REMARK   19  A    between atoms: _47  and  _48
REMARK   20  A    between atoms: _47  and  _50
REMARK   21  A    between atoms: _50  and  _51
REMARK   22  A    between atoms: _51  and  _52
REMARK   23  A    between atoms: _52  and  _53
REMARK   24  A    between atoms: _53  and  _54
REMARK   25  A    between atoms: _58  and  _60
REMARK   26  A    between atoms: _60  and  _61
REMARK   27  A    between atoms: _60  and  _63
REMARK   28  A    between atoms: _63  and  _64
REMARK   29  A    between atoms: _67  and  _69
REMARK   30  A    between atoms: _69  and  _70
REMARK   31  A    between atoms: _72  and  _74
REMARK   32  A    between atoms: _74  and  _75
REMARK   33  A    between atoms: _74  and  _77
REMARK   34  A    between atoms: _77  and  _78
REMARK   35  A    between atoms: _83  and  _85
REMARK   36  A    between atoms: _85  and  _86
REMARK   37  A    between atoms: _85  and  _88
REMARK   38  A    between atoms: _88  and  _89
REMARK   39  A    between atoms: _92  and  _94
REMARK   40  A    between atoms: _94  and  _95
REMARK   41  A    between atoms: _94  and  _97
REMARK   42  A    between atoms: _97  and  _98
REMARK   43  A    between atoms: _103  and  _104
REMARK   44  A    between atoms: _106  and  _108
REMARK   45  A    between atoms: _108  and  _109
REMARK   46  A    between atoms: _108  and  _111
REMARK   47  A    between atoms: _111  and  _112
REMARK   48  A    between atoms: _117  and  _119
REMARK   49  A    between atoms: _119  and  _120
REMARK   50  A    between atoms: _119  and  _122
REMARK   51  A    between atoms: _122  and  _123
REMARK   52  A    between atoms: _126  and  _128
REMARK   53  A    between atoms: _128  and  _129
REMARK   54  A    between atoms: _128  and  _131
REMARK   55  A    between atoms: _131  and  _132
REMARK   56  A    between atoms: _135  and  _137
REMARK   57  A    between atoms: _137  and  _138
REMARK   58  A    between atoms: _137  and  _140
REMARK   59  A    between atoms: _140  and  _141
REMARK   60  A    between atoms: _144  and  _146
REMARK   61  A    between atoms: _146  and  _147
REMARK   62  A    between atoms: _146  and  _149
REMARK   63  A    between atoms: _149  and  _150
REMARK   64  A    between atoms: _153  and  _155
REMARK   65  A    between atoms: _155  and  _156
REMARK   66  A    between atoms: _155  and  _158
REMARK   67  A    between atoms: _158  and  _159
REMARK   68  A    between atoms: _161  and  _163
REMARK   69  A    between atoms: _163  and  _164
REMARK   70  A    between atoms: _166  and  _168
REMARK   71  A    between atoms: _168  and  _169
REMARK   72  A    between atoms: _171  and  _173
REMARK   73  A    between atoms: _173  and  _174
REMARK   74  A    between atoms: _173  and  _176
REMARK   75  A    between atoms: _176  and  _177
REMARK   76  A    between atoms: _182  and  _183
REMARK   77  A    between atoms: _185  and  _187
REMARK   78  A    between atoms: _187  and  _188
REMARK   79  A    between atoms: _187  and  _190
REMARK   80  A    between atoms: _190  and  _191
REMARK   81  A    between atoms: _191  and  _192
REMARK   82  A    between atoms: _197  and  _199
REMARK   83  A    between atoms: _199  and  _200
REMARK   84  A    between atoms: _203  and  _205
REMARK   85  A    between atoms: _205  and  _206
REMARK   86  A    between atoms: _205  and  _208
REMARK   87  A    between atoms: _208  and  _209
REMARK   88  A    between atoms: _209  and  _210
REMARK   89  A    between atoms: _212  and  _214
REMARK   90  A    between atoms: _214  and  _215
REMARK   91  A    between atoms: _218  and  _220
REMARK   92  A    between atoms: _220  and  _221
REMARK   93  A    between atoms: _220  and  _223
REMARK   94  A    between atoms: _223  and  _224
REMARK   95  A    between atoms: _230  and  _232
REMARK   96  A    between atoms: _232  and  _233
REMARK   97  A    between atoms: _232  and  _235
REMARK   98  A    between atoms: _235  and  _236
REMARK   99  A    between atoms: _239  and  _241
REMARK  100  A    between atoms: _241  and  _242
REMARK  101  A    between atoms: _241  and  _244
REMARK  102  A    between atoms: _244  and  _245
REMARK  103  A    between atoms: _245  and  _246
REMARK  104  A    between atoms: _249  and  _251
REMARK  105  A    between atoms: _251  and  _252
REMARK  106  A    between atoms: _251  and  _254
REMARK  107  A    between atoms: _256  and  _258
REMARK  108  A    between atoms: _258  and  _259
REMARK  109  A    between atoms: _258  and  _261
REMARK  110  A    between atoms: _261  and  _262
REMARK  111  A    between atoms: _265  and  _267
REMARK  112  A    between atoms: _267  and  _268
REMARK  113  A    between atoms: _267  and  _270
REMARK  114  A    between atoms: _270  and  _271
REMARK  115  A    between atoms: _273  and  _275
REMARK  116  A    between atoms: _275  and  _276
REMARK  117  A    between atoms: _275  and  _278
REMARK  118  A    between atoms: _278  and  _279
REMARK  119  A    between atoms: _282  and  _284
REMARK  120  A    between atoms: _284  and  _285
REMARK  121  A    between atoms: _284  and  _287
REMARK  122  A    between atoms: _287  and  _288
REMARK  123  A    between atoms: _288  and  _289
REMARK  124  A    between atoms: _294  and  _296
REMARK  125  A    between atoms: _296  and  _297
REMARK  126  A    between atoms: _296  and  _299
REMARK  127  A    between atoms: _299  and  _300
REMARK  128  A    between atoms: _300  and  _301
REMARK  129  A    between atoms: _306  and  _308
REMARK  130  A    between atoms: _308  and  _309
REMARK  131  A    between atoms: _311  and  _313
REMARK  132  A    between atoms: _313  and  _314
REMARK  133  A    between atoms: _313  and  _316
REMARK  134  A    between atoms: _316  and  _317
REMARK  135  A    between atoms: _319  and  _321
REMARK  136  A    between atoms: _321  and  _322
REMARK  137  A    between atoms: _321  and  _324
REMARK  138  A    between atoms: _324  and  _325
REMARK  139  A    between atoms: _325  and  _326
REMARK  140  A    between atoms: _326  and  _327
REMARK  141  A    between atoms: _336  and  _338
REMARK  142  A    between atoms: _338  and  _339
REMARK  143  A    between atoms: _342  and  _344
REMARK  144  A    between atoms: _344  and  _345
REMARK  145  A    between atoms: _344  and  _347
REMARK  146  A    between atoms: _350  and  _352
REMARK  147  A    between atoms: _352  and  _353
REMARK  148  A    between atoms: _355  and  _357
REMARK  149  A    between atoms: _357  and  _358
REMARK  150  A    between atoms: _360  and  _362
REMARK  151  A    between atoms: _362  and  _363
REMARK  152  A    between atoms: _362  and  _365
REMARK  153  A    between atoms: _365  and  _366
REMARK  154  A    between atoms: _369  and  _371
REMARK  155  A    between atoms: _371  and  _372
REMARK  156  A    between atoms: _375  and  _377
REMARK  157  A    between atoms: _377  and  _378
REMARK  158  A    between atoms: _377  and  _380
REMARK  159  A    between atoms: _383  and  _385
REMARK  160  A    between atoms: _385  and  _386
REMARK  161  A    between atoms: _388  and  _390
REMARK  162  A    between atoms: _390  and  _391
REMARK  163  A    between atoms: _390  and  _393
REMARK  164  A    between atoms: _393  and  _394
REMARK  165  A    between atoms: _394  and  _395
REMARK  166  A    between atoms: _398  and  _400
REMARK  167  A    between atoms: _400  and  _401
REMARK  168  A    between atoms: _400  and  _403
REMARK  169  A    between atoms: _403  and  _404
REMARK  170  A    between atoms: _404  and  _405
REMARK  171  A    between atoms: _407  and  _409
REMARK  172  A    between atoms: _409  and  _410
REMARK  173  A    between atoms: _409  and  _412
REMARK  174  A    between atoms: _412  and  _413
REMARK  175  A    between atoms: _418  and  _419
REMARK  176  A    between atoms: _421  and  _423
REMARK  177  A    between atoms: _423  and  _424
REMARK  178  A    between atoms: _423  and  _426
REMARK  179  A    between atoms: _426  and  _427
REMARK  180  A    between atoms: _430  and  _432
REMARK  181  A    between atoms: _432  and  _433
REMARK  182  A    between atoms: _432  and  _435
REMARK  183  A    between atoms: _435  and  _436
REMARK  184  A    between atoms: _436  and  _437
REMARK  185  A    between atoms: _439  and  _441
REMARK  186  A    between atoms: _441  and  _442
REMARK  187  A    between atoms: _444  and  _446
REMARK  188  A    between atoms: _446  and  _447
REMARK  189  A    between atoms: _446  and  _449
REMARK  190  A    between atoms: _452  and  _454
REMARK  191  A    between atoms: _454  and  _455
REMARK  192  A    between atoms: _457  and  _459
REMARK  193  A    between atoms: _459  and  _460
REMARK  194  A    between atoms: _459  and  _462
REMARK  195  A    between atoms: _462  and  _463
REMARK  196  A    between atoms: _469  and  _471
REMARK  197  A    between atoms: _471  and  _472
REMARK  198  A    between atoms: _471  and  _474
REMARK  199  A    between atoms: _474  and  _475
REMARK  200  A    between atoms: _478  and  _480
REMARK  201  A    between atoms: _480  and  _481
REMARK  202  A    between atoms: _480  and  _483
REMARK  203  A    between atoms: _485  and  _487
REMARK  204  A    between atoms: _487  and  _488
REMARK  205  A    between atoms: _487  and  _490
REMARK  206  A    between atoms: _493  and  _495
REMARK  207  A    between atoms: _495  and  _496
REMARK  208  A    between atoms: _495  and  _498
REMARK  209  A    between atoms: _498  and  _499
REMARK  210  A    between atoms: _502  and  _504
REMARK  211  A    between atoms: _504  and  _505
REMARK  212  A    between atoms: _504  and  _507
REMARK  213  A    between atoms: _507  and  _508
REMARK  214  A    between atoms: _508  and  _509
REMARK  215  A    between atoms: _509  and  _510
REMARK                            x       y       z     vdW  Elec       q    Type
REMARK                         _______ _______ _______ _____ _____    ______ ____
ROOT
ATOM      1  O   HOH     1      25.524  20.404  12.958  0.00  0.00    +0.000 OA
ENDROOT
TORSDOF 0
REMARK  Name = ../refined-set-2016/3ge7/3ge7_pocket.pdb
REMARK  215 active torsions:
REMARK  status: ('A' for Active; 'I' for Inactive)
REMARK    1  A    between atoms: _1  and  _3
REMARK    2  A    between atoms: _3  and  _4
REMARK    3  A    between atoms: _3  and  _6
REMARK    4  A    between atoms: _6  and  _7
REMARK    5  A    between atoms: _7  and  _8
REMARK    6  A    between atoms: _11  and  _12
REMARK    7  A    between atoms: _17  and  _19
REMARK    8  A    between atoms: _19  and  _20
REMARK    9  A    between atoms: _19  and  _22
REMARK   10  A    between atoms: _25  and  _27
REMARK   11  A    between atoms: _27  and  _28
REMARK   12  A    between atoms: _30  and  _32
REMARK   13  A    between atoms: _32  and  _33
REMARK   14  A    between atoms: _32  and  _35
REMARK   15  A    between atoms: _35  and  _36
REMARK   16  A    between atoms: _39  and  _41
REMARK   17  A    between atoms: _41  and  _42
REMARK   18  A    between atoms: _45  and  _47
REMARK   19  A    between atoms: _47  and  _48
REMARK   20  A    between atoms: _47  and  _50
REMARK   21  A    between atoms: _50  and  _51
REMARK   22  A    between atoms: _51  and  _52
REMARK   23  A    between atoms: _52  and  _53
REMARK   24  A    between atoms: _53  and  _54
REMARK   25  A    between atoms: _58  and  _60
REMARK   26  A    between atoms: _60  and  _61
REMARK   27  A    between atoms: _60  and  _63
REMARK   28  A    between atoms: _63  and  _64
REMARK   29  A    between atoms: _67  and  _69
REMARK   30  A    between atoms: _69  and  _70
REMARK   31  A    between atoms: _72  and  _74
REMARK   32  A    between atoms: _74  and  _75
REMARK   33  A    between atoms: _74  and  _77
REMARK   34  A    between atoms: _77  and  _78
REMARK   35  A    between atoms: _83  and  _85
REMARK   36  A    between atoms: _85  and  _86
REMARK   37  A    between atoms: _85  and  _88
REMARK   38  A    between atoms: _88  and  _89
REMARK   39  A    between atoms: _92  and  _94
REMARK   40  A    between atoms: _94  and  _95
REMARK   41  A    between atoms: _94  and  _97
REMARK   42  A    between atoms: _97  and  _98
REMARK   43  A    between atoms: _103  and  _104
REMARK   44  A    between atoms: _106  and  _108
REMARK   45  A    between atoms: _108  and  _109
REMARK   46  A    between atoms: _108  and  _111
REMARK   47  A    between atoms: _111  and  _112
REMARK   48  A    between atoms: _117  and  _119
REMARK   49  A    between atoms: _119  and  _120
REMARK   50  A    between atoms: _119  and  _122
REMARK   51  A    between atoms: _122  and  _123
REMARK   52  A    between atoms: _126  and  _128
REMARK   53  A    between atoms: _128  and  _129
REMARK   54  A    between atoms: _128  and  _131
REMARK   55  A    between atoms: _131  and  _132
REMARK   56  A    between atoms: _135  and  _137
REMARK   57  A    between atoms: _137  and  _138
REMARK   58  A    between atoms: _137  and  _140
REMARK   59  A    between atoms: _140  and  _141
REMARK   60  A    between atoms: _144  and  _146
REMARK   61  A    between atoms: _146  and  _147
REMARK   62  A    between atoms: _146  and  _149
REMARK   63  A    between atoms: _149  and  _150
REMARK   64  A    between atoms: _153  and  _155
REMARK   65  A    between atoms: _155  and  _156
REMARK   66  A    between atoms: _155  and  _158
REMARK   67  A    between atoms: _158  and  _159
REMARK   68  A    between atoms: _161  and  _163
REMARK   69  A    between atoms: _163  and  _164
REMARK   70  A    between atoms: _166  and  _168
REMARK   71  A    between atoms: _168  and  _169
REMARK   72  A    between atoms: _171  and  _173
REMARK   73  A    between atoms: _173  and  _174
REMARK   74  A    between atoms: _173  and  _176
REMARK   75  A    between atoms: _176  and  _177
REMARK   76  A    between atoms: _182  and  _183
REMARK   77  A    between atoms: _185  and  _187
REMARK   78  A    between atoms: _187  and  _188
REMARK   79  A    between atoms: _187  and  _190
REMARK   80  A    between atoms: _190  and  _191
REMARK   81  A    between atoms: _191  and  _192
REMARK   82  A    between atoms: _197  and  _199
REMARK   83  A    between atoms: _199  and  _200
REMARK   84  A    between atoms: _203  and  _205
REMARK   85  A    between atoms: _205  and  _206
REMARK   86  A    between atoms: _205  and  _208
REMARK   87  A    between atoms: _208  and  _209
REMARK   88  A    between atoms: _209  and  _210
REMARK   89  A    between atoms: _212  and  _214
REMARK   90  A    between atoms: _214  and  _215
REMARK   91  A    between atoms: _218  and  _220
REMARK   92  A    between atoms: _220  and  _221
REMARK   93  A    between atoms: _220  and  _223
REMARK   94  A    between atoms: _223  and  _224
REMARK   95  A    between atoms: _230  and  _232
REMARK   96  A    between atoms: _232  and  _233
REMARK   97  A    between atoms: _232  and  _235
REMARK   98  A    between atoms: _235  and  _236
REMARK   99  A    between atoms: _239  and  _241
REMARK  100  A    between atoms: _241  and  _242
REMARK  101  A    between atoms: _241  and  _244
REMARK  102  A    between atoms: _244  and  _245
REMARK  103  A    between atoms: _245  and  _246
REMARK  104  A    between atoms: _249  and  _251
REMARK  105  A    between atoms: _251  and  _252
REMARK  106  A    between atoms: _251  and  _254
REMARK  107  A    between atoms: _256  and  _258
REMARK  108  A    between atoms: _258  and  _259
REMARK  109  A    between atoms: _258  and  _261
REMARK  110  A    between atoms: _261  and  _262
REMARK  111  A    between atoms: _265  and  _267
REMARK  112  A    between atoms: _267  and  _268
REMARK  113  A    between atoms: _267  and  _270
REMARK  114  A    between atoms: _270  and  _271
REMARK  115  A    between atoms: _273  and  _275
REMARK  116  A    between atoms: _275  and  _276
REMARK  117  A    between atoms: _275  and  _278
REMARK  118  A    between atoms: _278  and  _279
REMARK  119  A    between atoms: _282  and  _284
REMARK  120  A    between atoms: _284  and  _285
REMARK  121  A    between atoms: _284  and  _287
REMARK  122  A    between atoms: _287  and  _288
REMARK  123  A    between atoms: _288  and  _289
REMARK  124  A    between atoms: _294  and  _296
REMARK  125  A    between atoms: _296  and  _297
REMARK  126  A    between atoms: _296  and  _299
REMARK  127  A    between atoms: _299  and  _300
REMARK  128  A    between atoms: _300  and  _301
REMARK  129  A    between atoms: _306  and  _308
REMARK  130  A    between atoms: _308  and  _309
REMARK  131  A    between atoms: _311  and  _313
REMARK  132  A    between atoms: _313  and  _314
REMARK  133  A    between atoms: _313  and  _316
REMARK  134  A    between atoms: _316  and  _317
REMARK  135  A    between atoms: _319  and  _321
REMARK  136  A    between atoms: _321  and  _322
REMARK  137  A    between atoms: _321  and  _324
REMARK  138  A    between atoms: _324  and  _325
REMARK  139  A    between atoms: _325  and  _326
REMARK  140  A    between atoms: _326  and  _327
REMARK  141  A    between atoms: _336  and  _338
REMARK  142  A    between atoms: _338  and  _339
REMARK  143  A    between atoms: _342  and  _344
REMARK  144  A    between atoms: _344  and  _345
REMARK  145  A    between atoms: _344  and  _347
REMARK  146  A    between atoms: _350  and  _352
REMARK  147  A    between atoms: _352  and  _353
REMARK  148  A    between atoms: _355  and  _357
REMARK  149  A    between atoms: _357  and  _358
REMARK  150  A    between atoms: _360  and  _362
REMARK  151  A    between atoms: _362  and  _363
REMARK  152  A    between atoms: _362  and  _365
REMARK  153  A    between atoms: _365  and  _366
REMARK  154  A    between atoms: _369  and  _371
REMARK  155  A    between atoms: _371  and  _372
REMARK  156  A    between atoms: _375  and  _377
REMARK  157  A    between atoms: _377  and  _378
REMARK  158  A    between atoms: _377  and  _380
REMARK  159  A    between atoms: _383  and  _385
REMARK  160  A    between atoms: _385  and  _386
REMARK  161  A    between atoms: _388  and  _390
REMARK  162  A    between atoms: _390  and  _391
REMARK  163  A    between atoms: _390  and  _393
REMARK  164  A    between atoms: _393  and  _394
REMARK  165  A    between atoms: _394  and  _395
REMARK  166  A    between atoms: _398  and  _400
REMARK  167  A    between atoms: _400  and  _401
REMARK  168  A    between atoms: _400  and  _403
REMARK  169  A    between atoms: _403  and  _404
REMARK  170  A    between atoms: _404  and  _405
REMARK  171  A    between atoms: _407  and  _409
REMARK  172  A    between atoms: _409  and  _410
REMARK  173  A    between atoms: _409  and  _412
REMARK  174  A    between atoms: _412  and  _413
REMARK  175  A    between atoms: _418  and  _419
REMARK  176  A    between atoms: _421  and  _423
REMARK  177  A    between atoms: _423  and  _424
REMARK  178  A    between atoms: _423  and  _426
REMARK  179  A    between atoms: _426  and  _427
REMARK  180  A    between atoms: _430  and  _432
REMARK  181  A    between atoms: _432  and  _433
REMARK  182  A    between atoms: _432  and  _435
REMARK  183  A    between atoms: _435  and  _436
REMARK  184  A    between atoms: _436  and  _437
REMARK  185  A    between atoms: _439  and  _441
REMARK  186  A    between atoms: _441  and  _442
REMARK  187  A    between atoms: _444  and  _446
REMARK  188  A    between atoms: _446  and  _447
REMARK  189  A    between atoms: _446  and  _449
REMARK  190  A    between atoms: _452  and  _454
REMARK  191  A    between atoms: _454  and  _455
REMARK  192  A    between atoms: _457  and  _459
REMARK  193  A    between atoms: _459  and  _460
REMARK  194  A    between atoms: _459  and  _462
REMARK  195  A    between atoms: _462  and  _463
REMARK  196  A    between atoms: _469  and  _471
REMARK  197  A    between atoms: _471  and  _472
REMARK  198  A    between atoms: _471  and  _474
REMARK  199  A    between atoms: _474  and  _475
REMARK  200  A    between atoms: _478  and  _480
REMARK  201  A    between atoms: _480  and  _481
REMARK  202  A    between atoms: _480  and  _483
REMARK  203  A    between atoms: _485  and  _487
REMARK  204  A    between atoms: _487  and  _488
REMARK  205  A    between atoms: _487  and  _490
REMARK  206  A    between atoms: _493  and  _495
REMARK  207  A    between atoms: _495  and  _496
REMARK  208  A    between atoms: _495  and  _498
REMARK  209  A    between atoms: _498  and  _499
REMARK  210  A    between atoms: _502  and  _504
REMARK  211  A    between atoms: _504  and  _505
REMARK  212  A    between atoms: _504  and  _507
REMARK  213  A    between atoms: _507  and  _508
REMARK  214  A    between atoms: _508  and  _509
REMARK  215  A    between atoms: _509  and  _510
REMARK                            x       y       z     vdW  Elec       q    Type
REMARK                         _______ _______ _______ _____ _____    ______ ____
ROOT
ATOM      1  O   HOH     1      25.996  18.057  13.346  0.00  0.00    +0.000 OA
ENDROOT
TORSDOF 0
