REMARK  Name = ../refined-set-2016/3bzf/3bzf_pocket.pdb
REMARK  356 active torsions:
REMARK  status: ('A' for Active; 'I' for Inactive)
REMARK    1  A    between atoms: _1  and  _3
REMARK    2  A    between atoms: _3  and  _4
REMARK    3  A    between atoms: _3  and  _6
REMARK    4  A    between atoms: _6  and  _7
REMARK    5  A    between atoms: _10  and  _12
REMARK    6  A    between atoms: _12  and  _13
REMARK    7  A    between atoms: _12  and  _15
REMARK    8  A    between atoms: _15  and  _16
REMARK    9  A    between atoms: _16  and  _17
REMARK   10  A    between atoms: _17  and  _18
REMARK   11  A    between atoms: _18  and  _19
REMARK   12  A    between atoms: _23  and  _25
REMARK   13  A    between atoms: _25  and  _26
REMARK   14  A    between atoms: _25  and  _28
REMARK   15  A    between atoms: _28  and  _29
REMARK   16  A    between atoms: _34  and  _35
REMARK   17  A    between atoms: _37  and  _39
REMARK   18  A    between atoms: _39  and  _40
REMARK   19  A    between atoms: _39  and  _42
REMARK   20  A    between atoms: _42  and  _43
REMARK   21  A    between atoms: _49  and  _51
REMARK   22  A    between atoms: _51  and  _52
REMARK   23  A    between atoms: _51  and  _54
REMARK   24  A    between atoms: _54  and  _55
REMARK   25  A    between atoms: _60  and  _62
REMARK   26  A    between atoms: _62  and  _63
REMARK   27  A    between atoms: _62  and  _65
REMARK   28  A    between atoms: _65  and  _66
REMARK   29  A    between atoms: _72  and  _74
REMARK   30  A    between atoms: _74  and  _75
REMARK   31  A    between atoms: _74  and  _77
REMARK   32  A    between atoms: _77  and  _78
REMARK   33  A    between atoms: _81  and  _83
REMARK   34  A    between atoms: _83  and  _84
REMARK   35  A    between atoms: _83  and  _86
REMARK   36  A    between atoms: _86  and  _87
REMARK   37  A    between atoms: _89  and  _91
REMARK   38  A    between atoms: _91  and  _92
REMARK   39  A    between atoms: _91  and  _94
REMARK   40  A    between atoms: _97  and  _99
REMARK   41  A    between atoms: _99  and  _100
REMARK   42  A    between atoms: _102  and  _104
REMARK   43  A    between atoms: _104  and  _105
REMARK   44  A    between atoms: _104  and  _107
REMARK   45  A    between atoms: _107  and  _108
REMARK   46  A    between atoms: _114  and  _116
REMARK   47  A    between atoms: _116  and  _117
REMARK   48  A    between atoms: _116  and  _119
REMARK   49  A    between atoms: _122  and  _124
REMARK   50  A    between atoms: _124  and  _125
REMARK   51  A    between atoms: _124  and  _127
REMARK   52  A    between atoms: _127  and  _128
REMARK   53  A    between atoms: _128  and  _129
REMARK   54  A    between atoms: _129  and  _130
REMARK   55  A    between atoms: _139  and  _141
REMARK   56  A    between atoms: _141  and  _142
REMARK   57  A    between atoms: _141  and  _144
REMARK   58  A    between atoms: _144  and  _145
REMARK   59  A    between atoms: _151  and  _153
REMARK   60  A    between atoms: _153  and  _154
REMARK   61  A    between atoms: _153  and  _156
REMARK   62  A    between atoms: _156  and  _157
REMARK   63  A    between atoms: _157  and  _158
REMARK   64  A    between atoms: _160  and  _162
REMARK   65  A    between atoms: _162  and  _163
REMARK   66  A    between atoms: _162  and  _165
REMARK   67  A    between atoms: _165  and  _166
REMARK   68  A    between atoms: _171  and  _172
REMARK   69  A    between atoms: _174  and  _176
REMARK   70  A    between atoms: _176  and  _177
REMARK   71  A    between atoms: _176  and  _179
REMARK   72  A    between atoms: _179  and  _180
REMARK   73  A    between atoms: _180  and  _181
REMARK   74  A    between atoms: _181  and  _182
REMARK   75  A    between atoms: _191  and  _193
REMARK   76  A    between atoms: _193  and  _194
REMARK   77  A    between atoms: _193  and  _196
REMARK   78  A    between atoms: _196  and  _197
REMARK   79  A    between atoms: _197  and  _198
REMARK   80  A    between atoms: _201  and  _203
REMARK   81  A    between atoms: _203  and  _204
REMARK   82  A    between atoms: _203  and  _206
REMARK   83  A    between atoms: _206  and  _207
REMARK   84  A    between atoms: _210  and  _212
REMARK   85  A    between atoms: _212  and  _213
REMARK   86  A    between atoms: _212  and  _215
REMARK   87  A    between atoms: _215  and  _216
REMARK   88  A    between atoms: _216  and  _217
REMARK   89  A    between atoms: _217  and  _218
REMARK   90  A    between atoms: _227  and  _229
REMARK   91  A    between atoms: _229  and  _230
REMARK   92  A    between atoms: _229  and  _232
REMARK   93  A    between atoms: _232  and  _233
REMARK   94  A    between atoms: _235  and  _237
REMARK   95  A    between atoms: _237  and  _238
REMARK   96  A    between atoms: _241  and  _243
REMARK   97  A    between atoms: _243  and  _244
REMARK   98  A    between atoms: _243  and  _246
REMARK   99  A    between atoms: _246  and  _247
REMARK  100  A    between atoms: _247  and  _248
REMARK  101  A    between atoms: _248  and  _249
REMARK  102  A    between atoms: _258  and  _260
REMARK  103  A    between atoms: _260  and  _261
REMARK  104  A    between atoms: _260  and  _263
REMARK  105  A    between atoms: _263  and  _264
REMARK  106  A    between atoms: _267  and  _269
REMARK  107  A    between atoms: _269  and  _270
REMARK  108  A    between atoms: _269  and  _272
REMARK  109  A    between atoms: _272  and  _273
REMARK  110  A    between atoms: _276  and  _278
REMARK  111  A    between atoms: _278  and  _279
REMARK  112  A    between atoms: _282  and  _284
REMARK  113  A    between atoms: _284  and  _285
REMARK  114  A    between atoms: _284  and  _287
REMARK  115  A    between atoms: _287  and  _288
REMARK  116  A    between atoms: _288  and  _289
REMARK  117  A    between atoms: _294  and  _296
REMARK  118  A    between atoms: _296  and  _297
REMARK  119  A    between atoms: _296  and  _299
REMARK  120  A    between atoms: _299  and  _300
REMARK  121  A    between atoms: _303  and  _305
REMARK  122  A    between atoms: _305  and  _306
REMARK  123  A    between atoms: _305  and  _308
REMARK  124  A    between atoms: _308  and  _309
REMARK  125  A    between atoms: _315  and  _317
REMARK  126  A    between atoms: _317  and  _318
REMARK  127  A    between atoms: _317  and  _320
REMARK  128  A    between atoms: _320  and  _321
REMARK  129  A    between atoms: _321  and  _322
REMARK  130  A    between atoms: _322  and  _323
REMARK  131  A    between atoms: _332  and  _334
REMARK  132  A    between atoms: _334  and  _335
REMARK  133  A    between atoms: _334  and  _337
REMARK  134  A    between atoms: _340  and  _342
REMARK  135  A    between atoms: _342  and  _343
REMARK  136  A    between atoms: _342  and  _345
REMARK  137  A    between atoms: _345  and  _346
REMARK  138  A    between atoms: _351  and  _353
REMARK  139  A    between atoms: _353  and  _354
REMARK  140  A    between atoms: _353  and  _356
REMARK  141  A    between atoms: _356  and  _357
REMARK  142  A    between atoms: _360  and  _362
REMARK  143  A    between atoms: _362  and  _363
REMARK  144  A    between atoms: _362  and  _365
REMARK  145  A    between atoms: _365  and  _366
REMARK  146  A    between atoms: _366  and  _367
REMARK  147  A    between atoms: _367  and  _368
REMARK  148  A    between atoms: _377  and  _379
REMARK  149  A    between atoms: _379  and  _380
REMARK  150  A    between atoms: _379  and  _382
REMARK  151  A    between atoms: _382  and  _383
REMARK  152  A    between atoms: _386  and  _388
REMARK  153  A    between atoms: _388  and  _389
REMARK  154  A    between atoms: _388  and  _391
REMARK  155  A    between atoms: _391  and  _392
REMARK  156  A    between atoms: _395  and  _397
REMARK  157  A    between atoms: _397  and  _398
REMARK  158  A    between atoms: _397  and  _400
REMARK  159  A    between atoms: _400  and  _401
REMARK  160  A    between atoms: _406  and  _407
REMARK  161  A    between atoms: _409  and  _411
REMARK  162  A    between atoms: _411  and  _412
REMARK  163  A    between atoms: _411  and  _414
REMARK  164  A    between atoms: _414  and  _415
REMARK  165  A    between atoms: _420  and  _421
REMARK  166  A    between atoms: _423  and  _425
REMARK  167  A    between atoms: _425  and  _426
REMARK  168  A    between atoms: _425  and  _428
REMARK  169  A    between atoms: _428  and  _429
REMARK  170  A    between atoms: _432  and  _434
REMARK  171  A    between atoms: _434  and  _435
REMARK  172  A    between atoms: _434  and  _437
REMARK  173  A    between atoms: _437  and  _438
REMARK  174  A    between atoms: _438  and  _439
REMARK  175  A    between atoms: _444  and  _446
REMARK  176  A    between atoms: _446  and  _447
REMARK  177  A    between atoms: _446  and  _449
REMARK  178  A    between atoms: _449  and  _450
REMARK  179  A    between atoms: _460  and  _462
REMARK  180  A    between atoms: _462  and  _463
REMARK  181  A    between atoms: _462  and  _465
REMARK  182  A    between atoms: _465  and  _466
REMARK  183  A    between atoms: _466  and  _467
REMARK  184  A    between atoms: _469  and  _471
REMARK  185  A    between atoms: _471  and  _472
REMARK  186  A    between atoms: _471  and  _474
REMARK  187  A    between atoms: _474  and  _475
REMARK  188  A    between atoms: _480  and  _482
REMARK  189  A    between atoms: _482  and  _483
REMARK  190  A    between atoms: _485  and  _487
REMARK  191  A    between atoms: _487  and  _488
REMARK  192  A    between atoms: _487  and  _490
REMARK  193  A    between atoms: _490  and  _491
REMARK  194  A    between atoms: _491  and  _814
REMARK  195  A    between atoms: _492  and  _494
REMARK  196  A    between atoms: _494  and  _495
REMARK  197  A    between atoms: _494  and  _497
REMARK  198  A    between atoms: _497  and  _498
REMARK  199  A    between atoms: _498  and  _499
REMARK  200  A    between atoms: _502  and  _504
REMARK  201  A    between atoms: _504  and  _505
REMARK  202  A    between atoms: _504  and  _507
REMARK  203  A    between atoms: _507  and  _508
REMARK  204  A    between atoms: _508  and  _509
REMARK  205  A    between atoms: _514  and  _516
REMARK  206  A    between atoms: _516  and  _517
REMARK  207  A    between atoms: _516  and  _519
REMARK  208  A    between atoms: _519  and  _520
REMARK  209  A    between atoms: _526  and  _528
REMARK  210  A    between atoms: _528  and  _529
REMARK  211  A    between atoms: _532  and  _534
REMARK  212  A    between atoms: _534  and  _535
REMARK  213  A    between atoms: _534  and  _537
REMARK  214  A    between atoms: _537  and  _538
REMARK  215  A    between atoms: _543  and  _544
REMARK  216  A    between atoms: _546  and  _548
REMARK  217  A    between atoms: _548  and  _549
REMARK  218  A    between atoms: _548  and  _551
REMARK  219  A    between atoms: _551  and  _552
REMARK  220  A    between atoms: _557  and  _558
REMARK  221  A    between atoms: _560  and  _562
REMARK  222  A    between atoms: _562  and  _563
REMARK  223  A    between atoms: _562  and  _565
REMARK  224  A    between atoms: _565  and  _566
REMARK  225  A    between atoms: _569  and  _571
REMARK  226  A    between atoms: _571  and  _572
REMARK  227  A    between atoms: _571  and  _574
REMARK  228  A    between atoms: _574  and  _575
REMARK  229  A    between atoms: _578  and  _580
REMARK  230  A    between atoms: _580  and  _581
REMARK  231  A    between atoms: _580  and  _583
REMARK  232  A    between atoms: _583  and  _584
REMARK  233  A    between atoms: _587  and  _589
REMARK  234  A    between atoms: _589  and  _590
REMARK  235  A    between atoms: _589  and  _592
REMARK  236  A    between atoms: _592  and  _593
REMARK  237  A    between atoms: _603  and  _605
REMARK  238  A    between atoms: _605  and  _606
REMARK  239  A    between atoms: _605  and  _608
REMARK  240  A    between atoms: _608  and  _609
REMARK  241  A    between atoms: _612  and  _614
REMARK  242  A    between atoms: _614  and  _615
REMARK  243  A    between atoms: _618  and  _620
REMARK  244  A    between atoms: _620  and  _621
REMARK  245  A    between atoms: _624  and  _626
REMARK  246  A    between atoms: _626  and  _627
REMARK  247  A    between atoms: _626  and  _629
REMARK  248  A    between atoms: _629  and  _630
REMARK  249  A    between atoms: _630  and  _631
REMARK  250  A    between atoms: _636  and  _638
REMARK  251  A    between atoms: _638  and  _639
REMARK  252  A    between atoms: _638  and  _641
REMARK  253  A    between atoms: _641  and  _642
REMARK  254  A    between atoms: _645  and  _647
REMARK  255  A    between atoms: _647  and  _648
REMARK  256  A    between atoms: _647  and  _650
REMARK  257  A    between atoms: _650  and  _651
REMARK  258  A    between atoms: _653  and  _655
REMARK  259  A    between atoms: _655  and  _656
REMARK  260  A    between atoms: _655  and  _658
REMARK  261  A    between atoms: _658  and  _659
REMARK  262  A    between atoms: _659  and  _660
REMARK  263  A    between atoms: _663  and  _665
REMARK  264  A    between atoms: _665  and  _666
REMARK  265  A    between atoms: _665  and  _668
REMARK  266  A    between atoms: _668  and  _669
REMARK  267  A    between atoms: _669  and  _670
REMARK  268  A    between atoms: _675  and  _677
REMARK  269  A    between atoms: _677  and  _678
REMARK  270  A    between atoms: _677  and  _680
REMARK  271  A    between atoms: _680  and  _681
REMARK  272  A    between atoms: _681  and  _682
REMARK  273  A    between atoms: _682  and  _683
REMARK  274  A    between atoms: _683  and  _684
REMARK  275  A    between atoms: _688  and  _690
REMARK  276  A    between atoms: _690  and  _691
REMARK  277  A    between atoms: _690  and  _693
REMARK  278  A    between atoms: _693  and  _694
REMARK  279  A    between atoms: _696  and  _698
REMARK  280  A    between atoms: _698  and  _699
REMARK  281  A    between atoms: _698  and  _701
REMARK  282  A    between atoms: _701  and  _702
REMARK  283  A    between atoms: _707  and  _709
REMARK  284  A    between atoms: _709  and  _710
REMARK  285  A    between atoms: _713  and  _715
REMARK  286  A    between atoms: _715  and  _716
REMARK  287  A    between atoms: _715  and  _718
REMARK  288  A    between atoms: _718  and  _719
REMARK  289  A    between atoms: _721  and  _723
REMARK  290  A    between atoms: _723  and  _724
REMARK  291  A    between atoms: _723  and  _726
REMARK  292  A    between atoms: _726  and  _727
REMARK  293  A    between atoms: _727  and  _728
REMARK  294  A    between atoms: _731  and  _733
REMARK  295  A    between atoms: _733  and  _734
REMARK  296  A    between atoms: _737  and  _739
REMARK  297  A    between atoms: _739  and  _740
REMARK  298  A    between atoms: _739  and  _742
REMARK  299  A    between atoms: _742  and  _743
REMARK  300  A    between atoms: _743  and  _744
REMARK  301  A    between atoms: _747  and  _749
REMARK  302  A    between atoms: _749  and  _750
REMARK  303  A    between atoms: _749  and  _752
REMARK  304  A    between atoms: _752  and  _753
REMARK  305  A    between atoms: _758  and  _760
REMARK  306  A    between atoms: _760  and  _761
REMARK  307  A    between atoms: _760  and  _763
REMARK  308  A    between atoms: _763  and  _764
REMARK  309  A    between atoms: _764  and  _765
REMARK  310  A    between atoms: _770  and  _772
REMARK  311  A    between atoms: _772  and  _773
REMARK  312  A    between atoms: _776  and  _778
REMARK  313  A    between atoms: _778  and  _779
REMARK  314  A    between atoms: _778  and  _781
REMARK  315  A    between atoms: _781  and  _782
REMARK  316  A    between atoms: _787  and  _788
REMARK  317  A    between atoms: _790  and  _792
REMARK  318  A    between atoms: _792  and  _793
REMARK  319  A    between atoms: _792  and  _795
REMARK  320  A    between atoms: _795  and  _796
REMARK  321  A    between atoms: _799  and  _801
REMARK  322  A    between atoms: _801  and  _802
REMARK  323  A    between atoms: _801  and  _804
REMARK  324  A    between atoms: _804  and  _805
REMARK  325  A    between atoms: _808  and  _810
REMARK  326  A    between atoms: _810  and  _811
REMARK  327  A    between atoms: _810  and  _813
REMARK  328  A    between atoms: _813  and  _814
REMARK  329  A    between atoms: _815  and  _817
REMARK  330  A    between atoms: _817  and  _818
REMARK  331  A    between atoms: _817  and  _820
REMARK  332  A    between atoms: _823  and  _825
REMARK  333  A    between atoms: _825  and  _826
REMARK  334  A    between atoms: _825  and  _828
REMARK  335  A    between atoms: _828  and  _829
REMARK  336  A    between atoms: _829  and  _830
REMARK  337  A    between atoms: _833  and  _835
REMARK  338  A    between atoms: _835  and  _836
REMARK  339  A    between atoms: _835  and  _838
REMARK  340  A    between atoms: _838  and  _839
REMARK  341  A    between atoms: _849  and  _851
REMARK  342  A    between atoms: _851  and  _852
REMARK  343  A    between atoms: _851  and  _854
REMARK  344  A    between atoms: _854  and  _855
REMARK  345  A    between atoms: _858  and  _860
REMARK  346  A    between atoms: _860  and  _861
REMARK  347  A    between atoms: _860  and  _863
REMARK  348  A    between atoms: _863  and  _864
REMARK  349  A    between atoms: _864  and  _865
REMARK  350  A    between atoms: _865  and  _866
REMARK  351  A    between atoms: _866  and  _867
REMARK  352  A    between atoms: _871  and  _873
REMARK  353  A    between atoms: _873  and  _874
REMARK  354  A    between atoms: _873  and  _876
REMARK  355  A    between atoms: _876  and  _877
REMARK  356  A    between atoms: _882  and  _883
REMARK                            x       y       z     vdW  Elec       q    Type
REMARK                         _______ _______ _______ _____ _____    ______ ____
ROOT
ATOM      1  CA  TYR A   3      19.924  -6.554   8.817  0.00  0.00    +0.153 C 
ENDROOT
BRANCH   1   2
ATOM      2  C   TYR A   3      18.409  -6.289   8.777  0.00  0.00    +0.241 C 
ATOM      3  O   TYR A   3      17.860  -5.674   9.659  0.00  0.00    -0.273 OA
ATOM      4  N   PHE A   4      17.776  -6.716   7.709  0.00  0.00    -0.297 N 
ATOM      5  H   PHE A   4      18.323  -7.166   6.948  0.00  0.00    +0.150 HD
BRANCH   4   6
ATOM      6  CA  PHE A   4      16.351  -6.582   7.556  0.00  0.00    +0.153 C 
BRANCH   6   7
ATOM      7  C   PHE A   4      15.701  -7.946   7.247  0.00  0.00    +0.241 C 
ATOM      8  N   HIS A   5      14.829  -8.424   8.085  0.00  0.00    -0.298 N 
ATOM      9  H   HIS A   5      14.504  -7.813   8.861  0.00  0.00    +0.150 HD
ATOM     10  O   PHE A   4      16.056  -8.571   6.236  0.00  0.00    -0.273 OA
BRANCH   8  11
ATOM     11  CA  HIS A   5      14.288  -9.761   7.993  0.00  0.00    +0.143 C 
BRANCH  11  12
ATOM     12  C   HIS A   5      12.769  -9.739   7.742  0.00  0.00    +0.227 C 
ATOM     13  O   HIS A   5      12.053  -9.172   8.499  0.00  0.00    -0.286 OA
ENDBRANCH  11  12
BRANCH  11  14
ATOM     14  CB  HIS A   5      14.593 -10.545   9.302  0.00  0.00    +0.075 C 
BRANCH  14  15
ATOM     15  CG  HIS A   5      16.005 -10.531   9.684  0.00  0.00    +0.082 A 
ATOM     16  CD2 HIS A   5      16.674  -9.801  10.599  0.00  0.00    +0.115 A 
ATOM     17  NE2 HIS A   5      17.988 -10.224  10.611  0.00  0.00    -0.221 NA
ATOM     18  CE1 HIS A   5      18.127 -11.151   9.661  0.00  0.00    +0.199 A 
ATOM     19  ND1 HIS A   5      16.945 -11.363   9.082  0.00  0.00    -0.227 NA
ENDBRANCH  14  15
ENDBRANCH  11  14
ENDBRANCH   8  11
ENDBRANCH   6   7
BRANCH   6  20
ATOM     20  CB  PHE A   4      16.097  -5.655   6.371  0.00  0.00    +0.055 C 
BRANCH  20  21
ATOM     21  CG  PHE A   4      16.584  -4.265   6.632  0.00  0.00    -0.020 A 
ATOM     22  CD2 PHE A   4      15.791  -3.341   7.207  0.00  0.00    -0.004 A 
ATOM     23  CE2 PHE A   4      16.302  -2.052   7.424  0.00  0.00    -0.000 A 
ATOM     24  CZ  PHE A   4      17.622  -1.731   7.118  0.00  0.00    -0.000 A 
ATOM     25  CE1 PHE A   4      18.399  -2.735   6.601  0.00  0.00    -0.000 A 
ATOM     26  CD1 PHE A   4      17.898  -3.934   6.327  0.00  0.00    -0.004 A 
ENDBRANCH  20  21
ENDBRANCH   6  20
ENDBRANCH   4   6
ENDBRANCH   1   2
BRANCH   1  28
ATOM     27  C   LYS A   2      21.648  -4.848   8.800  0.00  0.00    +0.241 C 
ATOM     28  N   TYR A   3      20.692  -5.513   9.458  0.00  0.00    -0.297 N 
ATOM     29  H   TYR A   3      20.498  -5.275  10.452  0.00  0.00    +0.150 HD
ATOM     30  O   LYS A   2      22.019  -5.138   7.717  0.00  0.00    -0.273 OA
BRANCH  27  31
ATOM     31  CA  LYS A   2      22.259  -3.685   9.496  0.00  0.00    +0.149 C 
BRANCH  31  34
ATOM     32  C   LEU A   1      24.434  -3.284  10.425  0.00  0.00    +0.238 C 
ATOM     33  O   LEU A   1      23.928  -3.134  11.555  0.00  0.00    -0.274 OA
ATOM     34  N   LYS A   2      23.709  -3.541   9.323  0.00  0.00    -0.297 N 
ATOM     35  H   LYS A   2      24.156  -3.634   8.389  0.00  0.00    +0.150 HD
BRANCH  32  36
ATOM     36  CA  LEU A   1      25.935  -3.074  10.282  0.00  0.00    +0.145 C 
BRANCH  36  37
ATOM     37  N   LEU A   1      26.189  -1.707  10.721  0.00  0.00    -0.238 NA
ATOM     38  H   LEU A   1      25.969  -1.427  11.698  0.00  0.00    +0.142 HD
ENDBRANCH  36  37
BRANCH  36  39
ATOM     39  CB  LEU A   1      26.719  -4.097  11.115  0.00  0.00    +0.026 C 
BRANCH  39  40
ATOM     40  CG  LEU A   1      26.536  -5.604  10.827  0.00  0.00    +0.002 C 
ATOM     41  CD2 LEU A   1      27.531  -6.473  11.543  0.00  0.00    +0.000 C 
ATOM     42  CD1 LEU A   1      26.655  -5.906   9.306  0.00  0.00    +0.000 C 
ENDBRANCH  39  40
ENDBRANCH  36  39
ENDBRANCH  32  36
ENDBRANCH  31  34
BRANCH  31  43
ATOM     43  CB  LYS A   2      21.558  -2.434   8.988  0.00  0.00    +0.029 C 
BRANCH  43  44
ATOM     44  CG  LYS A   2      22.130  -1.151   9.476  0.00  0.00    +0.000 C 
BRANCH  44  45
ATOM     45  CD  LYS A   2      21.367   0.080   9.002  0.00  0.00    -0.024 C 
BRANCH  45  46
ATOM     46  CE  LYS A   2      21.898   1.346   9.631  0.00  0.00    -0.086 C 
BRANCH  46  47
ATOM     47  NZ  LYS A   2      21.200   2.610   9.089  0.00  0.00    +0.380 N 
ATOM     48  HZ1 LYS A   2      21.600   3.451   9.552  0.00  0.00    -0.089 HD
ATOM     49  HZ2 LYS A   2      20.181   2.555   9.289  0.00  0.00    -0.089 HD
ATOM     50  HZ3 LYS A   2      21.350   2.674   8.062  0.00  0.00    -0.089 HD
ENDBRANCH  46  47
ENDBRANCH  45  46
ENDBRANCH  44  45
ENDBRANCH  43  44
ENDBRANCH  31  43
ENDBRANCH  27  31
ENDBRANCH   1  28
BRANCH   1  51
ATOM     51  CB  TYR A   3      20.185  -7.807   9.563  0.00  0.00    +0.055 C 
BRANCH  51  52
ATOM     52  CG  TYR A   3      21.541  -8.414   9.311  0.00  0.00    -0.020 A 
ATOM     53  CD2 TYR A   3      22.681  -8.014  10.103  0.00  0.00    -0.001 A 
ATOM     54  CE2 TYR A   3      23.927  -8.586   9.853  0.00  0.00    +0.036 A 
ATOM     55  CZ  TYR A   3      24.085  -9.588   8.907  0.00  0.00    +0.134 A 
ATOM     56  CE1 TYR A   3      22.980 -10.064   8.131  0.00  0.00    +0.036 A 
ATOM     57  CD1 TYR A   3      21.739  -9.470   8.340  0.00  0.00    -0.001 A 
BRANCH  55  58
ATOM     58  OH  TYR A   3      25.391 -10.144   8.756  0.00  0.00    -0.506 OA
ATOM     59  HH  TYR A   3      26.016  -9.688   9.373  0.00  0.00    +0.292 HD
ENDBRANCH  55  58
ENDBRANCH  51  52
ENDBRANCH   1  51
TORSDOF 24
REMARK  Name = ../refined-set-2016/3bzf/3bzf_pocket.pdb
REMARK  356 active torsions:
REMARK  status: ('A' for Active; 'I' for Inactive)
REMARK    1  A    between atoms: _1  and  _3
REMARK    2  A    between atoms: _3  and  _4
REMARK    3  A    between atoms: _3  and  _6
REMARK    4  A    between atoms: _6  and  _7
REMARK    5  A    between atoms: _10  and  _12
REMARK    6  A    between atoms: _12  and  _13
REMARK    7  A    between atoms: _12  and  _15
REMARK    8  A    between atoms: _15  and  _16
REMARK    9  A    between atoms: _16  and  _17
REMARK   10  A    between atoms: _17  and  _18
REMARK   11  A    between atoms: _18  and  _19
REMARK   12  A    between atoms: _23  and  _25
REMARK   13  A    between atoms: _25  and  _26
REMARK   14  A    between atoms: _25  and  _28
REMARK   15  A    between atoms: _28  and  _29
REMARK   16  A    between atoms: _34  and  _35
REMARK   17  A    between atoms: _37  and  _39
REMARK   18  A    between atoms: _39  and  _40
REMARK   19  A    between atoms: _39  and  _42
REMARK   20  A    between atoms: _42  and  _43
REMARK   21  A    between atoms: _49  and  _51
REMARK   22  A    between atoms: _51  and  _52
REMARK   23  A    between atoms: _51  and  _54
REMARK   24  A    between atoms: _54  and  _55
REMARK   25  A    between atoms: _60  and  _62
REMARK   26  A    between atoms: _62  and  _63
REMARK   27  A    between atoms: _62  and  _65
REMARK   28  A    between atoms: _65  and  _66
REMARK   29  A    between atoms: _72  and  _74
REMARK   30  A    between atoms: _74  and  _75
REMARK   31  A    between atoms: _74  and  _77
REMARK   32  A    between atoms: _77  and  _78
REMARK   33  A    between atoms: _81  and  _83
REMARK   34  A    between atoms: _83  and  _84
REMARK   35  A    between atoms: _83  and  _86
REMARK   36  A    between atoms: _86  and  _87
REMARK   37  A    between atoms: _89  and  _91
REMARK   38  A    between atoms: _91  and  _92
REMARK   39  A    between atoms: _91  and  _94
REMARK   40  A    between atoms: _97  and  _99
REMARK   41  A    between atoms: _99  and  _100
REMARK   42  A    between atoms: _102  and  _104
REMARK   43  A    between atoms: _104  and  _105
REMARK   44  A    between atoms: _104  and  _107
REMARK   45  A    between atoms: _107  and  _108
REMARK   46  A    between atoms: _114  and  _116
REMARK   47  A    between atoms: _116  and  _117
REMARK   48  A    between atoms: _116  and  _119
REMARK   49  A    between atoms: _122  and  _124
REMARK   50  A    between atoms: _124  and  _125
REMARK   51  A    between atoms: _124  and  _127
REMARK   52  A    between atoms: _127  and  _128
REMARK   53  A    between atoms: _128  and  _129
REMARK   54  A    between atoms: _129  and  _130
REMARK   55  A    between atoms: _139  and  _141
REMARK   56  A    between atoms: _141  and  _142
REMARK   57  A    between atoms: _141  and  _144
REMARK   58  A    between atoms: _144  and  _145
REMARK   59  A    between atoms: _151  and  _153
REMARK   60  A    between atoms: _153  and  _154
REMARK   61  A    between atoms: _153  and  _156
REMARK   62  A    between atoms: _156  and  _157
REMARK   63  A    between atoms: _157  and  _158
REMARK   64  A    between atoms: _160  and  _162
REMARK   65  A    between atoms: _162  and  _163
REMARK   66  A    between atoms: _162  and  _165
REMARK   67  A    between atoms: _165  and  _166
REMARK   68  A    between atoms: _171  and  _172
REMARK   69  A    between atoms: _174  and  _176
REMARK   70  A    between atoms: _176  and  _177
REMARK   71  A    between atoms: _176  and  _179
REMARK   72  A    between atoms: _179  and  _180
REMARK   73  A    between atoms: _180  and  _181
REMARK   74  A    between atoms: _181  and  _182
REMARK   75  A    between atoms: _191  and  _193
REMARK   76  A    between atoms: _193  and  _194
REMARK   77  A    between atoms: _193  and  _196
REMARK   78  A    between atoms: _196  and  _197
REMARK   79  A    between atoms: _197  and  _198
REMARK   80  A    between atoms: _201  and  _203
REMARK   81  A    between atoms: _203  and  _204
REMARK   82  A    between atoms: _203  and  _206
REMARK   83  A    between atoms: _206  and  _207
REMARK   84  A    between atoms: _210  and  _212
REMARK   85  A    between atoms: _212  and  _213
REMARK   86  A    between atoms: _212  and  _215
REMARK   87  A    between atoms: _215  and  _216
REMARK   88  A    between atoms: _216  and  _217
REMARK   89  A    between atoms: _217  and  _218
REMARK   90  A    between atoms: _227  and  _229
REMARK   91  A    between atoms: _229  and  _230
REMARK   92  A    between atoms: _229  and  _232
REMARK   93  A    between atoms: _232  and  _233
REMARK   94  A    between atoms: _235  and  _237
REMARK   95  A    between atoms: _237  and  _238
REMARK   96  A    between atoms: _241  and  _243
REMARK   97  A    between atoms: _243  and  _244
REMARK   98  A    between atoms: _243  and  _246
REMARK   99  A    between atoms: _246  and  _247
REMARK  100  A    between atoms: _247  and  _248
REMARK  101  A    between atoms: _248  and  _249
REMARK  102  A    between atoms: _258  and  _260
REMARK  103  A    between atoms: _260  and  _261
REMARK  104  A    between atoms: _260  and  _263
REMARK  105  A    between atoms: _263  and  _264
REMARK  106  A    between atoms: _267  and  _269
REMARK  107  A    between atoms: _269  and  _270
REMARK  108  A    between atoms: _269  and  _272
REMARK  109  A    between atoms: _272  and  _273
REMARK  110  A    between atoms: _276  and  _278
REMARK  111  A    between atoms: _278  and  _279
REMARK  112  A    between atoms: _282  and  _284
REMARK  113  A    between atoms: _284  and  _285
REMARK  114  A    between atoms: _284  and  _287
REMARK  115  A    between atoms: _287  and  _288
REMARK  116  A    between atoms: _288  and  _289
REMARK  117  A    between atoms: _294  and  _296
REMARK  118  A    between atoms: _296  and  _297
REMARK  119  A    between atoms: _296  and  _299
REMARK  120  A    between atoms: _299  and  _300
REMARK  121  A    between atoms: _303  and  _305
REMARK  122  A    between atoms: _305  and  _306
REMARK  123  A    between atoms: _305  and  _308
REMARK  124  A    between atoms: _308  and  _309
REMARK  125  A    between atoms: _315  and  _317
REMARK  126  A    between atoms: _317  and  _318
REMARK  127  A    between atoms: _317  and  _320
REMARK  128  A    between atoms: _320  and  _321
REMARK  129  A    between atoms: _321  and  _322
REMARK  130  A    between atoms: _322  and  _323
REMARK  131  A    between atoms: _332  and  _334
REMARK  132  A    between atoms: _334  and  _335
REMARK  133  A    between atoms: _334  and  _337
REMARK  134  A    between atoms: _340  and  _342
REMARK  135  A    between atoms: _342  and  _343
REMARK  136  A    between atoms: _342  and  _345
REMARK  137  A    between atoms: _345  and  _346
REMARK  138  A    between atoms: _351  and  _353
REMARK  139  A    between atoms: _353  and  _354
REMARK  140  A    between atoms: _353  and  _356
REMARK  141  A    between atoms: _356  and  _357
REMARK  142  A    between atoms: _360  and  _362
REMARK  143  A    between atoms: _362  and  _363
REMARK  144  A    between atoms: _362  and  _365
REMARK  145  A    between atoms: _365  and  _366
REMARK  146  A    between atoms: _366  and  _367
REMARK  147  A    between atoms: _367  and  _368
REMARK  148  A    between atoms: _377  and  _379
REMARK  149  A    between atoms: _379  and  _380
REMARK  150  A    between atoms: _379  and  _382
REMARK  151  A    between atoms: _382  and  _383
REMARK  152  A    between atoms: _386  and  _388
REMARK  153  A    between atoms: _388  and  _389
REMARK  154  A    between atoms: _388  and  _391
REMARK  155  A    between atoms: _391  and  _392
REMARK  156  A    between atoms: _395  and  _397
REMARK  157  A    between atoms: _397  and  _398
REMARK  158  A    between atoms: _397  and  _400
REMARK  159  A    between atoms: _400  and  _401
REMARK  160  A    between atoms: _406  and  _407
REMARK  161  A    between atoms: _409  and  _411
REMARK  162  A    between atoms: _411  and  _412
REMARK  163  A    between atoms: _411  and  _414
REMARK  164  A    between atoms: _414  and  _415
REMARK  165  A    between atoms: _420  and  _421
REMARK  166  A    between atoms: _423  and  _425
REMARK  167  A    between atoms: _425  and  _426
REMARK  168  A    between atoms: _425  and  _428
REMARK  169  A    between atoms: _428  and  _429
REMARK  170  A    between atoms: _432  and  _434
REMARK  171  A    between atoms: _434  and  _435
REMARK  172  A    between atoms: _434  and  _437
REMARK  173  A    between atoms: _437  and  _438
REMARK  174  A    between atoms: _438  and  _439
REMARK  175  A    between atoms: _444  and  _446
REMARK  176  A    between atoms: _446  and  _447
REMARK  177  A    between atoms: _446  and  _449
REMARK  178  A    between atoms: _449  and  _450
REMARK  179  A    between atoms: _460  and  _462
REMARK  180  A    between atoms: _462  and  _463
REMARK  181  A    between atoms: _462  and  _465
REMARK  182  A    between atoms: _465  and  _466
REMARK  183  A    between atoms: _466  and  _467
REMARK  184  A    between atoms: _469  and  _471
REMARK  185  A    between atoms: _471  and  _472
REMARK  186  A    between atoms: _471  and  _474
REMARK  187  A    between atoms: _474  and  _475
REMARK  188  A    between atoms: _480  and  _482
REMARK  189  A    between atoms: _482  and  _483
REMARK  190  A    between atoms: _485  and  _487
REMARK  191  A    between atoms: _487  and  _488
REMARK  192  A    between atoms: _487  and  _490
REMARK  193  A    between atoms: _490  and  _491
REMARK  194  A    between atoms: _491  and  _814
REMARK  195  A    between atoms: _492  and  _494
REMARK  196  A    between atoms: _494  and  _495
REMARK  197  A    between atoms: _494  and  _497
REMARK  198  A    between atoms: _497  and  _498
REMARK  199  A    between atoms: _498  and  _499
REMARK  200  A    between atoms: _502  and  _504
REMARK  201  A    between atoms: _504  and  _505
REMARK  202  A    between atoms: _504  and  _507
REMARK  203  A    between atoms: _507  and  _508
REMARK  204  A    between atoms: _508  and  _509
REMARK  205  A    between atoms: _514  and  _516
REMARK  206  A    between atoms: _516  and  _517
REMARK  207  A    between atoms: _516  and  _519
REMARK  208  A    between atoms: _519  and  _520
REMARK  209  A    between atoms: _526  and  _528
REMARK  210  A    between atoms: _528  and  _529
REMARK  211  A    between atoms: _532  and  _534
REMARK  212  A    between atoms: _534  and  _535
REMARK  213  A    between atoms: _534  and  _537
REMARK  214  A    between atoms: _537  and  _538
REMARK  215  A    between atoms: _543  and  _544
REMARK  216  A    between atoms: _546  and  _548
REMARK  217  A    between atoms: _548  and  _549
REMARK  218  A    between atoms: _548  and  _551
REMARK  219  A    between atoms: _551  and  _552
REMARK  220  A    between atoms: _557  and  _558
REMARK  221  A    between atoms: _560  and  _562
REMARK  222  A    between atoms: _562  and  _563
REMARK  223  A    between atoms: _562  and  _565
REMARK  224  A    between atoms: _565  and  _566
REMARK  225  A    between atoms: _569  and  _571
REMARK  226  A    between atoms: _571  and  _572
REMARK  227  A    between atoms: _571  and  _574
REMARK  228  A    between atoms: _574  and  _575
REMARK  229  A    between atoms: _578  and  _580
REMARK  230  A    between atoms: _580  and  _581
REMARK  231  A    between atoms: _580  and  _583
REMARK  232  A    between atoms: _583  and  _584
REMARK  233  A    between atoms: _587  and  _589
REMARK  234  A    between atoms: _589  and  _590
REMARK  235  A    between atoms: _589  and  _592
REMARK  236  A    between atoms: _592  and  _593
REMARK  237  A    between atoms: _603  and  _605
REMARK  238  A    between atoms: _605  and  _606
REMARK  239  A    between atoms: _605  and  _608
REMARK  240  A    between atoms: _608  and  _609
REMARK  241  A    between atoms: _612  and  _614
REMARK  242  A    between atoms: _614  and  _615
REMARK  243  A    between atoms: _618  and  _620
REMARK  244  A    between atoms: _620  and  _621
REMARK  245  A    between atoms: _624  and  _626
REMARK  246  A    between atoms: _626  and  _627
REMARK  247  A    between atoms: _626  and  _629
REMARK  248  A    between atoms: _629  and  _630
REMARK  249  A    between atoms: _630  and  _631
REMARK  250  A    between atoms: _636  and  _638
REMARK  251  A    between atoms: _638  and  _639
REMARK  252  A    between atoms: _638  and  _641
REMARK  253  A    between atoms: _641  and  _642
REMARK  254  A    between atoms: _645  and  _647
REMARK  255  A    between atoms: _647  and  _648
REMARK  256  A    between atoms: _647  and  _650
REMARK  257  A    between atoms: _650  and  _651
REMARK  258  A    between atoms: _653  and  _655
REMARK  259  A    between atoms: _655  and  _656
REMARK  260  A    between atoms: _655  and  _658
REMARK  261  A    between atoms: _658  and  _659
REMARK  262  A    between atoms: _659  and  _660
REMARK  263  A    between atoms: _663  and  _665
REMARK  264  A    between atoms: _665  and  _666
REMARK  265  A    between atoms: _665  and  _668
REMARK  266  A    between atoms: _668  and  _669
REMARK  267  A    between atoms: _669  and  _670
REMARK  268  A    between atoms: _675  and  _677
REMARK  269  A    between atoms: _677  and  _678
REMARK  270  A    between atoms: _677  and  _680
REMARK  271  A    between atoms: _680  and  _681
REMARK  272  A    between atoms: _681  and  _682
REMARK  273  A    between atoms: _682  and  _683
REMARK  274  A    between atoms: _683  and  _684
REMARK  275  A    between atoms: _688  and  _690
REMARK  276  A    between atoms: _690  and  _691
REMARK  277  A    between atoms: _690  and  _693
REMARK  278  A    between atoms: _693  and  _694
REMARK  279  A    between atoms: _696  and  _698
REMARK  280  A    between atoms: _698  and  _699
REMARK  281  A    between atoms: _698  and  _701
REMARK  282  A    between atoms: _701  and  _702
REMARK  283  A    between atoms: _707  and  _709
REMARK  284  A    between atoms: _709  and  _710
REMARK  285  A    between atoms: _713  and  _715
REMARK  286  A    between atoms: _715  and  _716
REMARK  287  A    between atoms: _715  and  _718
REMARK  288  A    between atoms: _718  and  _719
REMARK  289  A    between atoms: _721  and  _723
REMARK  290  A    between atoms: _723  and  _724
REMARK  291  A    between atoms: _723  and  _726
REMARK  292  A    between atoms: _726  and  _727
REMARK  293  A    between atoms: _727  and  _728
REMARK  294  A    between atoms: _731  and  _733
REMARK  295  A    between atoms: _733  and  _734
REMARK  296  A    between atoms: _737  and  _739
REMARK  297  A    between atoms: _739  and  _740
REMARK  298  A    between atoms: _739  and  _742
REMARK  299  A    between atoms: _742  and  _743
REMARK  300  A    between atoms: _743  and  _744
REMARK  301  A    between atoms: _747  and  _749
REMARK  302  A    between atoms: _749  and  _750
REMARK  303  A    between atoms: _749  and  _752
REMARK  304  A    between atoms: _752  and  _753
REMARK  305  A    between atoms: _758  and  _760
REMARK  306  A    between atoms: _760  and  _761
REMARK  307  A    between atoms: _760  and  _763
REMARK  308  A    between atoms: _763  and  _764
REMARK  309  A    between atoms: _764  and  _765
REMARK  310  A    between atoms: _770  and  _772
REMARK  311  A    between atoms: _772  and  _773
REMARK  312  A    between atoms: _776  and  _778
REMARK  313  A    between atoms: _778  and  _779
REMARK  314  A    between atoms: _778  and  _781
REMARK  315  A    between atoms: _781  and  _782
REMARK  316  A    between atoms: _787  and  _788
REMARK  317  A    between atoms: _790  and  _792
REMARK  318  A    between atoms: _792  and  _793
REMARK  319  A    between atoms: _792  and  _795
REMARK  320  A    between atoms: _795  and  _796
REMARK  321  A    between atoms: _799  and  _801
REMARK  322  A    between atoms: _801  and  _802
REMARK  323  A    between atoms: _801  and  _804
REMARK  324  A    between atoms: _804  and  _805
REMARK  325  A    between atoms: _808  and  _810
REMARK  326  A    between atoms: _810  and  _811
REMARK  327  A    between atoms: _810  and  _813
REMARK  328  A    between atoms: _813  and  _814
REMARK  329  A    between atoms: _815  and  _817
REMARK  330  A    between atoms: _817  and  _818
REMARK  331  A    between atoms: _817  and  _820
REMARK  332  A    between atoms: _823  and  _825
REMARK  333  A    between atoms: _825  and  _826
REMARK  334  A    between atoms: _825  and  _828
REMARK  335  A    between atoms: _828  and  _829
REMARK  336  A    between atoms: _829  and  _830
REMARK  337  A    between atoms: _833  and  _835
REMARK  338  A    between atoms: _835  and  _836
REMARK  339  A    between atoms: _835  and  _838
REMARK  340  A    between atoms: _838  and  _839
REMARK  341  A    between atoms: _849  and  _851
REMARK  342  A    between atoms: _851  and  _852
REMARK  343  A    between atoms: _851  and  _854
REMARK  344  A    between atoms: _854  and  _855
REMARK  345  A    between atoms: _858  and  _860
REMARK  346  A    between atoms: _860  and  _861
REMARK  347  A    between atoms: _860  and  _863
REMARK  348  A    between atoms: _863  and  _864
REMARK  349  A    between atoms: _864  and  _865
REMARK  350  A    between atoms: _865  and  _866
REMARK  351  A    between atoms: _866  and  _867
REMARK  352  A    between atoms: _871  and  _873
REMARK  353  A    between atoms: _873  and  _874
REMARK  354  A    between atoms: _873  and  _876
REMARK  355  A    between atoms: _876  and  _877
REMARK  356  A    between atoms: _882  and  _883
REMARK                            x       y       z     vdW  Elec       q    Type
REMARK                         _______ _______ _______ _____ _____    ______ ____
ROOT
ATOM      1  C   ILE A   2      15.008 -12.418   4.614  0.00  0.00    +0.241 C 
ATOM      2  O   ILE A   2      14.388 -11.732   5.394  0.00  0.00    -0.273 OA
ATOM      3  N   SER A   3      16.339 -12.450   4.509  0.00  0.00    -0.295 N 
ATOM      4  H   SER A   3      16.748 -13.095   3.803  0.00  0.00    +0.150 HD
ENDROOT
BRANCH   3   5
ATOM      5  CA  SER A   3      17.254 -11.662   5.296  0.00  0.00    +0.178 C 
BRANCH   5   6
ATOM      6  C   SER A   3      18.262 -10.967   4.360  0.00  0.00    +0.243 C 
ATOM      7  N   VAL A   4      18.396  -9.638   4.548  0.00  0.00    -0.297 N 
ATOM      8  H   VAL A   4      17.829  -9.166   5.281  0.00  0.00    +0.150 HD
ATOM      9  O   SER A   3      18.824 -11.594   3.457  0.00  0.00    -0.273 OA
BRANCH   7  10
ATOM     10  CA  VAL A   4      19.305  -8.866   3.757  0.00  0.00    +0.149 C 
BRANCH  10  11
ATOM     11  C   VAL A   4      20.240  -8.149   4.720  0.00  0.00    +0.241 C 
ATOM     12  O   VAL A   4      19.885  -7.644   5.723  0.00  0.00    -0.273 OA
ATOM     13  N   GLY A   5      21.504  -8.189   4.415  0.00  0.00    -0.296 N 
ATOM     14  H   GLY A   5      21.800  -8.685   3.550  0.00  0.00    +0.150 HD
BRANCH  13  15
ATOM     15  CA  GLY A   5      22.518  -7.558   5.252  0.00  0.00    +0.163 C 
BRANCH  15  16
ATOM     16  C   GLY A   5      23.195  -6.419   4.571  0.00  0.00    +0.229 C 
ATOM     17  O   GLY A   5      23.609  -6.567   3.396  0.00  0.00    -0.286 OA
ENDBRANCH  15  16
ENDBRANCH  13  15
ENDBRANCH  10  11
BRANCH  10  18
ATOM     18  CB  VAL A   4      18.677  -7.899   2.758  0.00  0.00    +0.027 C 
ATOM     19  CG2 VAL A   4      17.852  -6.888   3.415  0.00  0.00    +0.002 C 
ATOM     20  CG1 VAL A   4      17.965  -8.663   1.607  0.00  0.00    +0.002 C 
ENDBRANCH  10  18
ENDBRANCH   7  10
ENDBRANCH   5   6
BRANCH   5  21
ATOM     21  CB  SER A   3      18.036 -12.605   6.208  0.00  0.00    +0.166 C 
BRANCH  21  22
ATOM     22  OG  SER A   3      17.271 -13.183   7.290  0.00  0.00    -0.380 OA
ATOM     23  H   SER A   3      16.917 -12.459   7.866  0.00  0.00    +0.211 HD
ENDBRANCH  21  22
ENDBRANCH   5  21
ENDBRANCH   3   5
BRANCH   1  24
ATOM     24  CA  ILE A   2      14.238 -13.234   3.586  0.00  0.00    +0.148 C 
BRANCH  24  26
ATOM     25  C   PHE A   1      12.901 -15.282   4.133  0.00  0.00    +0.239 C 
ATOM     26  N   ILE A   2      13.127 -13.962   4.261  0.00  0.00    -0.297 N 
ATOM     27  H   ILE A   2      12.485 -13.415   4.870  0.00  0.00    +0.150 HD
ATOM     28  O   PHE A   1      13.613 -16.050   3.482  0.00  0.00    -0.274 OA
BRANCH  25  29
ATOM     29  CA  PHE A   1      11.713 -15.823   4.829  0.00  0.00    +0.149 C 
BRANCH  29  30
ATOM     30  N   PHE A   1      10.844 -16.525   3.871  0.00  0.00    -0.238 NA
ATOM     31  H   PHE A   1      11.255 -17.111   3.117  0.00  0.00    +0.142 HD
ENDBRANCH  29  30
BRANCH  29  32
ATOM     32  CB  PHE A   1      12.175 -16.760   5.952  0.00  0.00    +0.053 C 
BRANCH  32  33
ATOM     33  CG  PHE A   1      12.956 -16.033   7.056  0.00  0.00    -0.020 A 
ATOM     34  CD2 PHE A   1      12.311 -15.352   8.060  0.00  0.00    -0.004 A 
ATOM     35  CE2 PHE A   1      13.070 -14.639   8.990  0.00  0.00    -0.000 A 
ATOM     36  CZ  PHE A   1      14.519 -14.603   8.890  0.00  0.00    -0.000 A 
ATOM     37  CE1 PHE A   1      15.086 -15.235   7.931  0.00  0.00    -0.000 A 
ATOM     38  CD1 PHE A   1      14.330 -15.933   7.012  0.00  0.00    -0.004 A 
ENDBRANCH  32  33
ENDBRANCH  29  32
ENDBRANCH  25  29
ENDBRANCH  24  26
BRANCH  24  39
ATOM     39  CB  ILE A   2      13.772 -12.243   2.482  0.00  0.00    +0.027 C 
ATOM     40  CG2 ILE A   2      14.962 -11.834   1.596  0.00  0.00    +0.002 C 
BRANCH  39  41
ATOM     41  CG1 ILE A   2      12.830 -12.989   1.583  0.00  0.00    +0.002 C 
ATOM     42  CD1 ILE A   2      12.315 -12.255   0.328  0.00  0.00    +0.000 C 
ENDBRANCH  39  41
ENDBRANCH  24  39
ENDBRANCH   1  24
TORSDOF 17
REMARK  Name = ../refined-set-2016/3bzf/3bzf_pocket.pdb
REMARK  356 active torsions:
REMARK  status: ('A' for Active; 'I' for Inactive)
REMARK    1  A    between atoms: _1  and  _3
REMARK    2  A    between atoms: _3  and  _4
REMARK    3  A    between atoms: _3  and  _6
REMARK    4  A    between atoms: _6  and  _7
REMARK    5  A    between atoms: _10  and  _12
REMARK    6  A    between atoms: _12  and  _13
REMARK    7  A    between atoms: _12  and  _15
REMARK    8  A    between atoms: _15  and  _16
REMARK    9  A    between atoms: _16  and  _17
REMARK   10  A    between atoms: _17  and  _18
REMARK   11  A    between atoms: _18  and  _19
REMARK   12  A    between atoms: _23  and  _25
REMARK   13  A    between atoms: _25  and  _26
REMARK   14  A    between atoms: _25  and  _28
REMARK   15  A    between atoms: _28  and  _29
REMARK   16  A    between atoms: _34  and  _35
REMARK   17  A    between atoms: _37  and  _39
REMARK   18  A    between atoms: _39  and  _40
REMARK   19  A    between atoms: _39  and  _42
REMARK   20  A    between atoms: _42  and  _43
REMARK   21  A    between atoms: _49  and  _51
REMARK   22  A    between atoms: _51  and  _52
REMARK   23  A    between atoms: _51  and  _54
REMARK   24  A    between atoms: _54  and  _55
REMARK   25  A    between atoms: _60  and  _62
REMARK   26  A    between atoms: _62  and  _63
REMARK   27  A    between atoms: _62  and  _65
REMARK   28  A    between atoms: _65  and  _66
REMARK   29  A    between atoms: _72  and  _74
REMARK   30  A    between atoms: _74  and  _75
REMARK   31  A    between atoms: _74  and  _77
REMARK   32  A    between atoms: _77  and  _78
REMARK   33  A    between atoms: _81  and  _83
REMARK   34  A    between atoms: _83  and  _84
REMARK   35  A    between atoms: _83  and  _86
REMARK   36  A    between atoms: _86  and  _87
REMARK   37  A    between atoms: _89  and  _91
REMARK   38  A    between atoms: _91  and  _92
REMARK   39  A    between atoms: _91  and  _94
REMARK   40  A    between atoms: _97  and  _99
REMARK   41  A    between atoms: _99  and  _100
REMARK   42  A    between atoms: _102  and  _104
REMARK   43  A    between atoms: _104  and  _105
REMARK   44  A    between atoms: _104  and  _107
REMARK   45  A    between atoms: _107  and  _108
REMARK   46  A    between atoms: _114  and  _116
REMARK   47  A    between atoms: _116  and  _117
REMARK   48  A    between atoms: _116  and  _119
REMARK   49  A    between atoms: _122  and  _124
REMARK   50  A    between atoms: _124  and  _125
REMARK   51  A    between atoms: _124  and  _127
REMARK   52  A    between atoms: _127  and  _128
REMARK   53  A    between atoms: _128  and  _129
REMARK   54  A    between atoms: _129  and  _130
REMARK   55  A    between atoms: _139  and  _141
REMARK   56  A    between atoms: _141  and  _142
REMARK   57  A    between atoms: _141  and  _144
REMARK   58  A    between atoms: _144  and  _145
REMARK   59  A    between atoms: _151  and  _153
REMARK   60  A    between atoms: _153  and  _154
REMARK   61  A    between atoms: _153  and  _156
REMARK   62  A    between atoms: _156  and  _157
REMARK   63  A    between atoms: _157  and  _158
REMARK   64  A    between atoms: _160  and  _162
REMARK   65  A    between atoms: _162  and  _163
REMARK   66  A    between atoms: _162  and  _165
REMARK   67  A    between atoms: _165  and  _166
REMARK   68  A    between atoms: _171  and  _172
REMARK   69  A    between atoms: _174  and  _176
REMARK   70  A    between atoms: _176  and  _177
REMARK   71  A    between atoms: _176  and  _179
REMARK   72  A    between atoms: _179  and  _180
REMARK   73  A    between atoms: _180  and  _181
REMARK   74  A    between atoms: _181  and  _182
REMARK   75  A    between atoms: _191  and  _193
REMARK   76  A    between atoms: _193  and  _194
REMARK   77  A    between atoms: _193  and  _196
REMARK   78  A    between atoms: _196  and  _197
REMARK   79  A    between atoms: _197  and  _198
REMARK   80  A    between atoms: _201  and  _203
REMARK   81  A    between atoms: _203  and  _204
REMARK   82  A    between atoms: _203  and  _206
REMARK   83  A    between atoms: _206  and  _207
REMARK   84  A    between atoms: _210  and  _212
REMARK   85  A    between atoms: _212  and  _213
REMARK   86  A    between atoms: _212  and  _215
REMARK   87  A    between atoms: _215  and  _216
REMARK   88  A    between atoms: _216  and  _217
REMARK   89  A    between atoms: _217  and  _218
REMARK   90  A    between atoms: _227  and  _229
REMARK   91  A    between atoms: _229  and  _230
REMARK   92  A    between atoms: _229  and  _232
REMARK   93  A    between atoms: _232  and  _233
REMARK   94  A    between atoms: _235  and  _237
REMARK   95  A    between atoms: _237  and  _238
REMARK   96  A    between atoms: _241  and  _243
REMARK   97  A    between atoms: _243  and  _244
REMARK   98  A    between atoms: _243  and  _246
REMARK   99  A    between atoms: _246  and  _247
REMARK  100  A    between atoms: _247  and  _248
REMARK  101  A    between atoms: _248  and  _249
REMARK  102  A    between atoms: _258  and  _260
REMARK  103  A    between atoms: _260  and  _261
REMARK  104  A    between atoms: _260  and  _263
REMARK  105  A    between atoms: _263  and  _264
REMARK  106  A    between atoms: _267  and  _269
REMARK  107  A    between atoms: _269  and  _270
REMARK  108  A    between atoms: _269  and  _272
REMARK  109  A    between atoms: _272  and  _273
REMARK  110  A    between atoms: _276  and  _278
REMARK  111  A    between atoms: _278  and  _279
REMARK  112  A    between atoms: _282  and  _284
REMARK  113  A    between atoms: _284  and  _285
REMARK  114  A    between atoms: _284  and  _287
REMARK  115  A    between atoms: _287  and  _288
REMARK  116  A    between atoms: _288  and  _289
REMARK  117  A    between atoms: _294  and  _296
REMARK  118  A    between atoms: _296  and  _297
REMARK  119  A    between atoms: _296  and  _299
REMARK  120  A    between atoms: _299  and  _300
REMARK  121  A    between atoms: _303  and  _305
REMARK  122  A    between atoms: _305  and  _306
REMARK  123  A    between atoms: _305  and  _308
REMARK  124  A    between atoms: _308  and  _309
REMARK  125  A    between atoms: _315  and  _317
REMARK  126  A    between atoms: _317  and  _318
REMARK  127  A    between atoms: _317  and  _320
REMARK  128  A    between atoms: _320  and  _321
REMARK  129  A    between atoms: _321  and  _322
REMARK  130  A    between atoms: _322  and  _323
REMARK  131  A    between atoms: _332  and  _334
REMARK  132  A    between atoms: _334  and  _335
REMARK  133  A    between atoms: _334  and  _337
REMARK  134  A    between atoms: _340  and  _342
REMARK  135  A    between atoms: _342  and  _343
REMARK  136  A    between atoms: _342  and  _345
REMARK  137  A    between atoms: _345  and  _346
REMARK  138  A    between atoms: _351  and  _353
REMARK  139  A    between atoms: _353  and  _354
REMARK  140  A    between atoms: _353  and  _356
REMARK  141  A    between atoms: _356  and  _357
REMARK  142  A    between atoms: _360  and  _362
REMARK  143  A    between atoms: _362  and  _363
REMARK  144  A    between atoms: _362  and  _365
REMARK  145  A    between atoms: _365  and  _366
REMARK  146  A    between atoms: _366  and  _367
REMARK  147  A    between atoms: _367  and  _368
REMARK  148  A    between atoms: _377  and  _379
REMARK  149  A    between atoms: _379  and  _380
REMARK  150  A    between atoms: _379  and  _382
REMARK  151  A    between atoms: _382  and  _383
REMARK  152  A    between atoms: _386  and  _388
REMARK  153  A    between atoms: _388  and  _389
REMARK  154  A    between atoms: _388  and  _391
REMARK  155  A    between atoms: _391  and  _392
REMARK  156  A    between atoms: _395  and  _397
REMARK  157  A    between atoms: _397  and  _398
REMARK  158  A    between atoms: _397  and  _400
REMARK  159  A    between atoms: _400  and  _401
REMARK  160  A    between atoms: _406  and  _407
REMARK  161  A    between atoms: _409  and  _411
REMARK  162  A    between atoms: _411  and  _412
REMARK  163  A    between atoms: _411  and  _414
REMARK  164  A    between atoms: _414  and  _415
REMARK  165  A    between atoms: _420  and  _421
REMARK  166  A    between atoms: _423  and  _425
REMARK  167  A    between atoms: _425  and  _426
REMARK  168  A    between atoms: _425  and  _428
REMARK  169  A    between atoms: _428  and  _429
REMARK  170  A    between atoms: _432  and  _434
REMARK  171  A    between atoms: _434  and  _435
REMARK  172  A    between atoms: _434  and  _437
REMARK  173  A    between atoms: _437  and  _438
REMARK  174  A    between atoms: _438  and  _439
REMARK  175  A    between atoms: _444  and  _446
REMARK  176  A    between atoms: _446  and  _447
REMARK  177  A    between atoms: _446  and  _449
REMARK  178  A    between atoms: _449  and  _450
REMARK  179  A    between atoms: _460  and  _462
REMARK  180  A    between atoms: _462  and  _463
REMARK  181  A    between atoms: _462  and  _465
REMARK  182  A    between atoms: _465  and  _466
REMARK  183  A    between atoms: _466  and  _467
REMARK  184  A    between atoms: _469  and  _471
REMARK  185  A    between atoms: _471  and  _472
REMARK  186  A    between atoms: _471  and  _474
REMARK  187  A    between atoms: _474  and  _475
REMARK  188  A    between atoms: _480  and  _482
REMARK  189  A    between atoms: _482  and  _483
REMARK  190  A    between atoms: _485  and  _487
REMARK  191  A    between atoms: _487  and  _488
REMARK  192  A    between atoms: _487  and  _490
REMARK  193  A    between atoms: _490  and  _491
REMARK  194  A    between atoms: _491  and  _814
REMARK  195  A    between atoms: _492  and  _494
REMARK  196  A    between atoms: _494  and  _495
REMARK  197  A    between atoms: _494  and  _497
REMARK  198  A    between atoms: _497  and  _498
REMARK  199  A    between atoms: _498  and  _499
REMARK  200  A    between atoms: _502  and  _504
REMARK  201  A    between atoms: _504  and  _505
REMARK  202  A    between atoms: _504  and  _507
REMARK  203  A    between atoms: _507  and  _508
REMARK  204  A    between atoms: _508  and  _509
REMARK  205  A    between atoms: _514  and  _516
REMARK  206  A    between atoms: _516  and  _517
REMARK  207  A    between atoms: _516  and  _519
REMARK  208  A    between atoms: _519  and  _520
REMARK  209  A    between atoms: _526  and  _528
REMARK  210  A    between atoms: _528  and  _529
REMARK  211  A    between atoms: _532  and  _534
REMARK  212  A    between atoms: _534  and  _535
REMARK  213  A    between atoms: _534  and  _537
REMARK  214  A    between atoms: _537  and  _538
REMARK  215  A    between atoms: _543  and  _544
REMARK  216  A    between atoms: _546  and  _548
REMARK  217  A    between atoms: _548  and  _549
REMARK  218  A    between atoms: _548  and  _551
REMARK  219  A    between atoms: _551  and  _552
REMARK  220  A    between atoms: _557  and  _558
REMARK  221  A    between atoms: _560  and  _562
REMARK  222  A    between atoms: _562  and  _563
REMARK  223  A    between atoms: _562  and  _565
REMARK  224  A    between atoms: _565  and  _566
REMARK  225  A    between atoms: _569  and  _571
REMARK  226  A    between atoms: _571  and  _572
REMARK  227  A    between atoms: _571  and  _574
REMARK  228  A    between atoms: _574  and  _575
REMARK  229  A    between atoms: _578  and  _580
REMARK  230  A    between atoms: _580  and  _581
REMARK  231  A    between atoms: _580  and  _583
REMARK  232  A    between atoms: _583  and  _584
REMARK  233  A    between atoms: _587  and  _589
REMARK  234  A    between atoms: _589  and  _590
REMARK  235  A    between atoms: _589  and  _592
REMARK  236  A    between atoms: _592  and  _593
REMARK  237  A    between atoms: _603  and  _605
REMARK  238  A    between atoms: _605  and  _606
REMARK  239  A    between atoms: _605  and  _608
REMARK  240  A    between atoms: _608  and  _609
REMARK  241  A    between atoms: _612  and  _614
REMARK  242  A    between atoms: _614  and  _615
REMARK  243  A    between atoms: _618  and  _620
REMARK  244  A    between atoms: _620  and  _621
REMARK  245  A    between atoms: _624  and  _626
REMARK  246  A    between atoms: _626  and  _627
REMARK  247  A    between atoms: _626  and  _629
REMARK  248  A    between atoms: _629  and  _630
REMARK  249  A    between atoms: _630  and  _631
REMARK  250  A    between atoms: _636  and  _638
REMARK  251  A    between atoms: _638  and  _639
REMARK  252  A    between atoms: _638  and  _641
REMARK  253  A    between atoms: _641  and  _642
REMARK  254  A    between atoms: _645  and  _647
REMARK  255  A    between atoms: _647  and  _648
REMARK  256  A    between atoms: _647  and  _650
REMARK  257  A    between atoms: _650  and  _651
REMARK  258  A    between atoms: _653  and  _655
REMARK  259  A    between atoms: _655  and  _656
REMARK  260  A    between atoms: _655  and  _658
REMARK  261  A    between atoms: _658  and  _659
REMARK  262  A    between atoms: _659  and  _660
REMARK  263  A    between atoms: _663  and  _665
REMARK  264  A    between atoms: _665  and  _666
REMARK  265  A    between atoms: _665  and  _668
REMARK  266  A    between atoms: _668  and  _669
REMARK  267  A    between atoms: _669  and  _670
REMARK  268  A    between atoms: _675  and  _677
REMARK  269  A    between atoms: _677  and  _678
REMARK  270  A    between atoms: _677  and  _680
REMARK  271  A    between atoms: _680  and  _681
REMARK  272  A    between atoms: _681  and  _682
REMARK  273  A    between atoms: _682  and  _683
REMARK  274  A    between atoms: _683  and  _684
REMARK  275  A    between atoms: _688  and  _690
REMARK  276  A    between atoms: _690  and  _691
REMARK  277  A    between atoms: _690  and  _693
REMARK  278  A    between atoms: _693  and  _694
REMARK  279  A    between atoms: _696  and  _698
REMARK  280  A    between atoms: _698  and  _699
REMARK  281  A    between atoms: _698  and  _701
REMARK  282  A    between atoms: _701  and  _702
REMARK  283  A    between atoms: _707  and  _709
REMARK  284  A    between atoms: _709  and  _710
REMARK  285  A    between atoms: _713  and  _715
REMARK  286  A    between atoms: _715  and  _716
REMARK  287  A    between atoms: _715  and  _718
REMARK  288  A    between atoms: _718  and  _719
REMARK  289  A    between atoms: _721  and  _723
REMARK  290  A    between atoms: _723  and  _724
REMARK  291  A    between atoms: _723  and  _726
REMARK  292  A    between atoms: _726  and  _727
REMARK  293  A    between atoms: _727  and  _728
REMARK  294  A    between atoms: _731  and  _733
REMARK  295  A    between atoms: _733  and  _734
REMARK  296  A    between atoms: _737  and  _739
REMARK  297  A    between atoms: _739  and  _740
REMARK  298  A    between atoms: _739  and  _742
REMARK  299  A    between atoms: _742  and  _743
REMARK  300  A    between atoms: _743  and  _744
REMARK  301  A    between atoms: _747  and  _749
REMARK  302  A    between atoms: _749  and  _750
REMARK  303  A    between atoms: _749  and  _752
REMARK  304  A    between atoms: _752  and  _753
REMARK  305  A    between atoms: _758  and  _760
REMARK  306  A    between atoms: _760  and  _761
REMARK  307  A    between atoms: _760  and  _763
REMARK  308  A    between atoms: _763  and  _764
REMARK  309  A    between atoms: _764  and  _765
REMARK  310  A    between atoms: _770  and  _772
REMARK  311  A    between atoms: _772  and  _773
REMARK  312  A    between atoms: _776  and  _778
REMARK  313  A    between atoms: _778  and  _779
REMARK  314  A    between atoms: _778  and  _781
REMARK  315  A    between atoms: _781  and  _782
REMARK  316  A    between atoms: _787  and  _788
REMARK  317  A    between atoms: _790  and  _792
REMARK  318  A    between atoms: _792  and  _793
REMARK  319  A    between atoms: _792  and  _795
REMARK  320  A    between atoms: _795  and  _796
REMARK  321  A    between atoms: _799  and  _801
REMARK  322  A    between atoms: _801  and  _802
REMARK  323  A    between atoms: _801  and  _804
REMARK  324  A    between atoms: _804  and  _805
REMARK  325  A    between atoms: _808  and  _810
REMARK  326  A    between atoms: _810  and  _811
REMARK  327  A    between atoms: _810  and  _813
REMARK  328  A    between atoms: _813  and  _814
REMARK  329  A    between atoms: _815  and  _817
REMARK  330  A    between atoms: _817  and  _818
REMARK  331  A    between atoms: _817  and  _820
REMARK  332  A    between atoms: _823  and  _825
REMARK  333  A    between atoms: _825  and  _826
REMARK  334  A    between atoms: _825  and  _828
REMARK  335  A    between atoms: _828  and  _829
REMARK  336  A    between atoms: _829  and  _830
REMARK  337  A    between atoms: _833  and  _835
REMARK  338  A    between atoms: _835  and  _836
REMARK  339  A    between atoms: _835  and  _838
REMARK  340  A    between atoms: _838  and  _839
REMARK  341  A    between atoms: _849  and  _851
REMARK  342  A    between atoms: _851  and  _852
REMARK  343  A    between atoms: _851  and  _854
REMARK  344  A    between atoms: _854  and  _855
REMARK  345  A    between atoms: _858  and  _860
REMARK  346  A    between atoms: _860  and  _861
REMARK  347  A    between atoms: _860  and  _863
REMARK  348  A    between atoms: _863  and  _864
REMARK  349  A    between atoms: _864  and  _865
REMARK  350  A    between atoms: _865  and  _866
REMARK  351  A    between atoms: _866  and  _867
REMARK  352  A    between atoms: _871  and  _873
REMARK  353  A    between atoms: _873  and  _874
REMARK  354  A    between atoms: _873  and  _876
REMARK  355  A    between atoms: _876  and  _877
REMARK  356  A    between atoms: _882  and  _883
REMARK                            x       y       z     vdW  Elec       q    Type
REMARK                         _______ _______ _______ _____ _____    ______ ____
ROOT
ATOM      1  CA  ARG A   3      21.189 -12.376   1.758  0.00  0.00    +0.149 C 
ENDROOT
BRANCH   1   2
ATOM      2  C   ARG A   3      20.777 -13.821   1.903  0.00  0.00    +0.241 C 
ATOM      3  N   PHE A   4      19.636 -14.013   2.490  0.00  0.00    -0.298 N 
ATOM      4  H   PHE A   4      19.126 -13.204   2.899  0.00  0.00    +0.150 HD
ATOM      5  O   ARG A   3      21.394 -14.668   1.463  0.00  0.00    -0.273 OA
BRANCH   3   6
ATOM      6  CA  PHE A   4      19.062 -15.346   2.583  0.00  0.00    +0.141 C 
BRANCH   6   7
ATOM      7  C   PHE A   4      17.644 -15.316   2.135  0.00  0.00    +0.227 C 
ATOM      8  O   PHE A   4      16.862 -14.447   2.603  0.00  0.00    -0.286 OA
ENDBRANCH   6   7
BRANCH   6   9
ATOM      9  CB  PHE A   4      19.073 -15.841   4.031  0.00  0.00    +0.054 C 
BRANCH   9  10
ATOM     10  CG  PHE A   4      18.367 -17.152   4.227  0.00  0.00    -0.020 A 
ATOM     11  CD2 PHE A   4      19.065 -18.300   4.390  0.00  0.00    -0.004 A 
ATOM     12  CE2 PHE A   4      18.419 -19.576   4.592  0.00  0.00    -0.000 A 
ATOM     13  CZ  PHE A   4      16.977 -19.677   4.644  0.00  0.00    -0.000 A 
ATOM     14  CE1 PHE A   4      16.257 -18.438   4.547  0.00  0.00    -0.000 A 
ATOM     15  CD1 PHE A   4      16.985 -17.196   4.280  0.00  0.00    -0.004 A 
ENDBRANCH   9  10
ENDBRANCH   6   9
ENDBRANCH   3   6
ENDBRANCH   1   2
BRANCH   1  18
ATOM     16  C   VAL A   2      23.126 -10.953   2.131  0.00  0.00    +0.241 C 
ATOM     17  O   VAL A   2      22.461  -9.903   2.262  0.00  0.00    -0.273 OA
ATOM     18  N   ARG A   3      22.610 -12.129   1.839  0.00  0.00    -0.297 N 
ATOM     19  H   ARG A   3      23.259 -12.921   1.657  0.00  0.00    +0.150 HD
BRANCH  16  20
ATOM     20  CA  VAL A   2      24.596 -10.966   2.195  0.00  0.00    +0.148 C 
BRANCH  20  22
ATOM     21  C   PHE A   1      26.187  -9.316   1.406  0.00  0.00    +0.239 C 
ATOM     22  N   VAL A   2      25.111  -9.635   2.165  0.00  0.00    -0.297 N 
ATOM     23  H   VAL A   2      24.652  -8.897   2.736  0.00  0.00    +0.150 HD
ATOM     24  O   PHE A   1      26.791 -10.122   0.748  0.00  0.00    -0.274 OA
BRANCH  21  25
ATOM     25  CA  PHE A   1      26.630  -7.844   1.250  0.00  0.00    +0.149 C 
BRANCH  25  26
ATOM     26  N   PHE A   1      25.532  -6.864   1.335  0.00  0.00    -0.238 NA
ATOM     27  H   PHE A   1      24.776  -7.005   2.035  0.00  0.00    +0.142 HD
ENDBRANCH  25  26
BRANCH  25  28
ATOM     28  CB  PHE A   1      27.773  -7.534   2.217  0.00  0.00    +0.053 C 
BRANCH  28  29
ATOM     29  CG  PHE A   1      27.454  -7.731   3.687  0.00  0.00    -0.020 A 
ATOM     30  CD2 PHE A   1      28.070  -8.742   4.469  0.00  0.00    -0.004 A 
ATOM     31  CE2 PHE A   1      27.772  -8.863   5.837  0.00  0.00    -0.000 A 
ATOM     32  CZ  PHE A   1      26.872  -8.015   6.439  0.00  0.00    -0.000 A 
ATOM     33  CE1 PHE A   1      26.275  -7.038   5.736  0.00  0.00    -0.000 A 
ATOM     34  CD1 PHE A   1      26.562  -6.892   4.338  0.00  0.00    -0.004 A 
ENDBRANCH  28  29
ENDBRANCH  25  28
ENDBRANCH  21  25
ENDBRANCH  20  22
BRANCH  20  35
ATOM     35  CB  VAL A   2      25.041 -11.685   3.464  0.00  0.00    +0.027 C 
ATOM     36  CG2 VAL A   2      24.463 -11.058   4.706  0.00  0.00    +0.002 C 
ATOM     37  CG1 VAL A   2      26.656 -11.624   3.532  0.00  0.00    +0.002 C 
ENDBRANCH  20  35
ENDBRANCH  16  20
ENDBRANCH   1  18
BRANCH   1  38
ATOM     38  CB  ARG A   3      20.571 -11.739   0.496  0.00  0.00    +0.033 C 
BRANCH  38  39
ATOM     39  CG  ARG A   3      20.635 -12.623  -0.690  0.00  0.00    +0.045 C 
BRANCH  39  40
ATOM     40  CD  ARG A   3      19.377 -13.445  -0.783  0.00  0.00    +0.174 C 
BRANCH  40  41
ATOM     41  NE  ARG A   3      19.537 -14.523  -1.744  0.00  0.00    -0.265 N 
ATOM     42  HE  ARG A   3      19.599 -15.496  -1.382  0.00  0.00    +0.259 HD
ATOM     43  CZ  ARG A   3      19.608 -14.341  -3.046  0.00  0.00    +0.342 C 
ATOM     44  NH2 ARG A   3      19.524 -13.163  -3.597  0.00  0.00    -0.292 N 
ATOM     45 HH21 ARG A   3      19.396 -12.319  -3.003  0.00  0.00    +0.255 HD
ATOM     46 HH22 ARG A   3      19.585 -13.067  -4.631  0.00  0.00    +0.255 HD
ATOM     47  NH1 ARG A   3      19.750 -15.368  -3.825  0.00  0.00    -0.292 N 
ATOM     48 HH11 ARG A   3      19.807 -16.324  -3.420  0.00  0.00    +0.255 HD
ATOM     49 HH12 ARG A   3      19.807 -15.235  -4.855  0.00  0.00    +0.255 HD
ENDBRANCH  40  41
ENDBRANCH  39  40
ENDBRANCH  38  39
ENDBRANCH   1  38
TORSDOF 17
REMARK  Name = ../refined-set-2016/3bzf/3bzf_pocket.pdb
REMARK  356 active torsions:
REMARK  status: ('A' for Active; 'I' for Inactive)
REMARK    1  A    between atoms: _1  and  _3
REMARK    2  A    between atoms: _3  and  _4
REMARK    3  A    between atoms: _3  and  _6
REMARK    4  A    between atoms: _6  and  _7
REMARK    5  A    between atoms: _10  and  _12
REMARK    6  A    between atoms: _12  and  _13
REMARK    7  A    between atoms: _12  and  _15
REMARK    8  A    between atoms: _15  and  _16
REMARK    9  A    between atoms: _16  and  _17
REMARK   10  A    between atoms: _17  and  _18
REMARK   11  A    between atoms: _18  and  _19
REMARK   12  A    between atoms: _23  and  _25
REMARK   13  A    between atoms: _25  and  _26
REMARK   14  A    between atoms: _25  and  _28
REMARK   15  A    between atoms: _28  and  _29
REMARK   16  A    between atoms: _34  and  _35
REMARK   17  A    between atoms: _37  and  _39
REMARK   18  A    between atoms: _39  and  _40
REMARK   19  A    between atoms: _39  and  _42
REMARK   20  A    between atoms: _42  and  _43
REMARK   21  A    between atoms: _49  and  _51
REMARK   22  A    between atoms: _51  and  _52
REMARK   23  A    between atoms: _51  and  _54
REMARK   24  A    between atoms: _54  and  _55
REMARK   25  A    between atoms: _60  and  _62
REMARK   26  A    between atoms: _62  and  _63
REMARK   27  A    between atoms: _62  and  _65
REMARK   28  A    between atoms: _65  and  _66
REMARK   29  A    between atoms: _72  and  _74
REMARK   30  A    between atoms: _74  and  _75
REMARK   31  A    between atoms: _74  and  _77
REMARK   32  A    between atoms: _77  and  _78
REMARK   33  A    between atoms: _81  and  _83
REMARK   34  A    between atoms: _83  and  _84
REMARK   35  A    between atoms: _83  and  _86
REMARK   36  A    between atoms: _86  and  _87
REMARK   37  A    between atoms: _89  and  _91
REMARK   38  A    between atoms: _91  and  _92
REMARK   39  A    between atoms: _91  and  _94
REMARK   40  A    between atoms: _97  and  _99
REMARK   41  A    between atoms: _99  and  _100
REMARK   42  A    between atoms: _102  and  _104
REMARK   43  A    between atoms: _104  and  _105
REMARK   44  A    between atoms: _104  and  _107
REMARK   45  A    between atoms: _107  and  _108
REMARK   46  A    between atoms: _114  and  _116
REMARK   47  A    between atoms: _116  and  _117
REMARK   48  A    between atoms: _116  and  _119
REMARK   49  A    between atoms: _122  and  _124
REMARK   50  A    between atoms: _124  and  _125
REMARK   51  A    between atoms: _124  and  _127
REMARK   52  A    between atoms: _127  and  _128
REMARK   53  A    between atoms: _128  and  _129
REMARK   54  A    between atoms: _129  and  _130
REMARK   55  A    between atoms: _139  and  _141
REMARK   56  A    between atoms: _141  and  _142
REMARK   57  A    between atoms: _141  and  _144
REMARK   58  A    between atoms: _144  and  _145
REMARK   59  A    between atoms: _151  and  _153
REMARK   60  A    between atoms: _153  and  _154
REMARK   61  A    between atoms: _153  and  _156
REMARK   62  A    between atoms: _156  and  _157
REMARK   63  A    between atoms: _157  and  _158
REMARK   64  A    between atoms: _160  and  _162
REMARK   65  A    between atoms: _162  and  _163
REMARK   66  A    between atoms: _162  and  _165
REMARK   67  A    between atoms: _165  and  _166
REMARK   68  A    between atoms: _171  and  _172
REMARK   69  A    between atoms: _174  and  _176
REMARK   70  A    between atoms: _176  and  _177
REMARK   71  A    between atoms: _176  and  _179
REMARK   72  A    between atoms: _179  and  _180
REMARK   73  A    between atoms: _180  and  _181
REMARK   74  A    between atoms: _181  and  _182
REMARK   75  A    between atoms: _191  and  _193
REMARK   76  A    between atoms: _193  and  _194
REMARK   77  A    between atoms: _193  and  _196
REMARK   78  A    between atoms: _196  and  _197
REMARK   79  A    between atoms: _197  and  _198
REMARK   80  A    between atoms: _201  and  _203
REMARK   81  A    between atoms: _203  and  _204
REMARK   82  A    between atoms: _203  and  _206
REMARK   83  A    between atoms: _206  and  _207
REMARK   84  A    between atoms: _210  and  _212
REMARK   85  A    between atoms: _212  and  _213
REMARK   86  A    between atoms: _212  and  _215
REMARK   87  A    between atoms: _215  and  _216
REMARK   88  A    between atoms: _216  and  _217
REMARK   89  A    between atoms: _217  and  _218
REMARK   90  A    between atoms: _227  and  _229
REMARK   91  A    between atoms: _229  and  _230
REMARK   92  A    between atoms: _229  and  _232
REMARK   93  A    between atoms: _232  and  _233
REMARK   94  A    between atoms: _235  and  _237
REMARK   95  A    between atoms: _237  and  _238
REMARK   96  A    between atoms: _241  and  _243
REMARK   97  A    between atoms: _243  and  _244
REMARK   98  A    between atoms: _243  and  _246
REMARK   99  A    between atoms: _246  and  _247
REMARK  100  A    between atoms: _247  and  _248
REMARK  101  A    between atoms: _248  and  _249
REMARK  102  A    between atoms: _258  and  _260
REMARK  103  A    between atoms: _260  and  _261
REMARK  104  A    between atoms: _260  and  _263
REMARK  105  A    between atoms: _263  and  _264
REMARK  106  A    between atoms: _267  and  _269
REMARK  107  A    between atoms: _269  and  _270
REMARK  108  A    between atoms: _269  and  _272
REMARK  109  A    between atoms: _272  and  _273
REMARK  110  A    between atoms: _276  and  _278
REMARK  111  A    between atoms: _278  and  _279
REMARK  112  A    between atoms: _282  and  _284
REMARK  113  A    between atoms: _284  and  _285
REMARK  114  A    between atoms: _284  and  _287
REMARK  115  A    between atoms: _287  and  _288
REMARK  116  A    between atoms: _288  and  _289
REMARK  117  A    between atoms: _294  and  _296
REMARK  118  A    between atoms: _296  and  _297
REMARK  119  A    between atoms: _296  and  _299
REMARK  120  A    between atoms: _299  and  _300
REMARK  121  A    between atoms: _303  and  _305
REMARK  122  A    between atoms: _305  and  _306
REMARK  123  A    between atoms: _305  and  _308
REMARK  124  A    between atoms: _308  and  _309
REMARK  125  A    between atoms: _315  and  _317
REMARK  126  A    between atoms: _317  and  _318
REMARK  127  A    between atoms: _317  and  _320
REMARK  128  A    between atoms: _320  and  _321
REMARK  129  A    between atoms: _321  and  _322
REMARK  130  A    between atoms: _322  and  _323
REMARK  131  A    between atoms: _332  and  _334
REMARK  132  A    between atoms: _334  and  _335
REMARK  133  A    between atoms: _334  and  _337
REMARK  134  A    between atoms: _340  and  _342
REMARK  135  A    between atoms: _342  and  _343
REMARK  136  A    between atoms: _342  and  _345
REMARK  137  A    between atoms: _345  and  _346
REMARK  138  A    between atoms: _351  and  _353
REMARK  139  A    between atoms: _353  and  _354
REMARK  140  A    between atoms: _353  and  _356
REMARK  141  A    between atoms: _356  and  _357
REMARK  142  A    between atoms: _360  and  _362
REMARK  143  A    between atoms: _362  and  _363
REMARK  144  A    between atoms: _362  and  _365
REMARK  145  A    between atoms: _365  and  _366
REMARK  146  A    between atoms: _366  and  _367
REMARK  147  A    between atoms: _367  and  _368
REMARK  148  A    between atoms: _377  and  _379
REMARK  149  A    between atoms: _379  and  _380
REMARK  150  A    between atoms: _379  and  _382
REMARK  151  A    between atoms: _382  and  _383
REMARK  152  A    between atoms: _386  and  _388
REMARK  153  A    between atoms: _388  and  _389
REMARK  154  A    between atoms: _388  and  _391
REMARK  155  A    between atoms: _391  and  _392
REMARK  156  A    between atoms: _395  and  _397
REMARK  157  A    between atoms: _397  and  _398
REMARK  158  A    between atoms: _397  and  _400
REMARK  159  A    between atoms: _400  and  _401
REMARK  160  A    between atoms: _406  and  _407
REMARK  161  A    between atoms: _409  and  _411
REMARK  162  A    between atoms: _411  and  _412
REMARK  163  A    between atoms: _411  and  _414
REMARK  164  A    between atoms: _414  and  _415
REMARK  165  A    between atoms: _420  and  _421
REMARK  166  A    between atoms: _423  and  _425
REMARK  167  A    between atoms: _425  and  _426
REMARK  168  A    between atoms: _425  and  _428
REMARK  169  A    between atoms: _428  and  _429
REMARK  170  A    between atoms: _432  and  _434
REMARK  171  A    between atoms: _434  and  _435
REMARK  172  A    between atoms: _434  and  _437
REMARK  173  A    between atoms: _437  and  _438
REMARK  174  A    between atoms: _438  and  _439
REMARK  175  A    between atoms: _444  and  _446
REMARK  176  A    between atoms: _446  and  _447
REMARK  177  A    between atoms: _446  and  _449
REMARK  178  A    between atoms: _449  and  _450
REMARK  179  A    between atoms: _460  and  _462
REMARK  180  A    between atoms: _462  and  _463
REMARK  181  A    between atoms: _462  and  _465
REMARK  182  A    between atoms: _465  and  _466
REMARK  183  A    between atoms: _466  and  _467
REMARK  184  A    between atoms: _469  and  _471
REMARK  185  A    between atoms: _471  and  _472
REMARK  186  A    between atoms: _471  and  _474
REMARK  187  A    between atoms: _474  and  _475
REMARK  188  A    between atoms: _480  and  _482
REMARK  189  A    between atoms: _482  and  _483
REMARK  190  A    between atoms: _485  and  _487
REMARK  191  A    between atoms: _487  and  _488
REMARK  192  A    between atoms: _487  and  _490
REMARK  193  A    between atoms: _490  and  _491
REMARK  194  A    between atoms: _491  and  _814
REMARK  195  A    between atoms: _492  and  _494
REMARK  196  A    between atoms: _494  and  _495
REMARK  197  A    between atoms: _494  and  _497
REMARK  198  A    between atoms: _497  and  _498
REMARK  199  A    between atoms: _498  and  _499
REMARK  200  A    between atoms: _502  and  _504
REMARK  201  A    between atoms: _504  and  _505
REMARK  202  A    between atoms: _504  and  _507
REMARK  203  A    between atoms: _507  and  _508
REMARK  204  A    between atoms: _508  and  _509
REMARK  205  A    between atoms: _514  and  _516
REMARK  206  A    between atoms: _516  and  _517
REMARK  207  A    between atoms: _516  and  _519
REMARK  208  A    between atoms: _519  and  _520
REMARK  209  A    between atoms: _526  and  _528
REMARK  210  A    between atoms: _528  and  _529
REMARK  211  A    between atoms: _532  and  _534
REMARK  212  A    between atoms: _534  and  _535
REMARK  213  A    between atoms: _534  and  _537
REMARK  214  A    between atoms: _537  and  _538
REMARK  215  A    between atoms: _543  and  _544
REMARK  216  A    between atoms: _546  and  _548
REMARK  217  A    between atoms: _548  and  _549
REMARK  218  A    between atoms: _548  and  _551
REMARK  219  A    between atoms: _551  and  _552
REMARK  220  A    between atoms: _557  and  _558
REMARK  221  A    between atoms: _560  and  _562
REMARK  222  A    between atoms: _562  and  _563
REMARK  223  A    between atoms: _562  and  _565
REMARK  224  A    between atoms: _565  and  _566
REMARK  225  A    between atoms: _569  and  _571
REMARK  226  A    between atoms: _571  and  _572
REMARK  227  A    between atoms: _571  and  _574
REMARK  228  A    between atoms: _574  and  _575
REMARK  229  A    between atoms: _578  and  _580
REMARK  230  A    between atoms: _580  and  _581
REMARK  231  A    between atoms: _580  and  _583
REMARK  232  A    between atoms: _583  and  _584
REMARK  233  A    between atoms: _587  and  _589
REMARK  234  A    between atoms: _589  and  _590
REMARK  235  A    between atoms: _589  and  _592
REMARK  236  A    between atoms: _592  and  _593
REMARK  237  A    between atoms: _603  and  _605
REMARK  238  A    between atoms: _605  and  _606
REMARK  239  A    between atoms: _605  and  _608
REMARK  240  A    between atoms: _608  and  _609
REMARK  241  A    between atoms: _612  and  _614
REMARK  242  A    between atoms: _614  and  _615
REMARK  243  A    between atoms: _618  and  _620
REMARK  244  A    between atoms: _620  and  _621
REMARK  245  A    between atoms: _624  and  _626
REMARK  246  A    between atoms: _626  and  _627
REMARK  247  A    between atoms: _626  and  _629
REMARK  248  A    between atoms: _629  and  _630
REMARK  249  A    between atoms: _630  and  _631
REMARK  250  A    between atoms: _636  and  _638
REMARK  251  A    between atoms: _638  and  _639
REMARK  252  A    between atoms: _638  and  _641
REMARK  253  A    between atoms: _641  and  _642
REMARK  254  A    between atoms: _645  and  _647
REMARK  255  A    between atoms: _647  and  _648
REMARK  256  A    between atoms: _647  and  _650
REMARK  257  A    between atoms: _650  and  _651
REMARK  258  A    between atoms: _653  and  _655
REMARK  259  A    between atoms: _655  and  _656
REMARK  260  A    between atoms: _655  and  _658
REMARK  261  A    between atoms: _658  and  _659
REMARK  262  A    between atoms: _659  and  _660
REMARK  263  A    between atoms: _663  and  _665
REMARK  264  A    between atoms: _665  and  _666
REMARK  265  A    between atoms: _665  and  _668
REMARK  266  A    between atoms: _668  and  _669
REMARK  267  A    between atoms: _669  and  _670
REMARK  268  A    between atoms: _675  and  _677
REMARK  269  A    between atoms: _677  and  _678
REMARK  270  A    between atoms: _677  and  _680
REMARK  271  A    between atoms: _680  and  _681
REMARK  272  A    between atoms: _681  and  _682
REMARK  273  A    between atoms: _682  and  _683
REMARK  274  A    between atoms: _683  and  _684
REMARK  275  A    between atoms: _688  and  _690
REMARK  276  A    between atoms: _690  and  _691
REMARK  277  A    between atoms: _690  and  _693
REMARK  278  A    between atoms: _693  and  _694
REMARK  279  A    between atoms: _696  and  _698
REMARK  280  A    between atoms: _698  and  _699
REMARK  281  A    between atoms: _698  and  _701
REMARK  282  A    between atoms: _701  and  _702
REMARK  283  A    between atoms: _707  and  _709
REMARK  284  A    between atoms: _709  and  _710
REMARK  285  A    between atoms: _713  and  _715
REMARK  286  A    between atoms: _715  and  _716
REMARK  287  A    between atoms: _715  and  _718
REMARK  288  A    between atoms: _718  and  _719
REMARK  289  A    between atoms: _721  and  _723
REMARK  290  A    between atoms: _723  and  _724
REMARK  291  A    between atoms: _723  and  _726
REMARK  292  A    between atoms: _726  and  _727
REMARK  293  A    between atoms: _727  and  _728
REMARK  294  A    between atoms: _731  and  _733
REMARK  295  A    between atoms: _733  and  _734
REMARK  296  A    between atoms: _737  and  _739
REMARK  297  A    between atoms: _739  and  _740
REMARK  298  A    between atoms: _739  and  _742
REMARK  299  A    between atoms: _742  and  _743
REMARK  300  A    between atoms: _743  and  _744
REMARK  301  A    between atoms: _747  and  _749
REMARK  302  A    between atoms: _749  and  _750
REMARK  303  A    between atoms: _749  and  _752
REMARK  304  A    between atoms: _752  and  _753
REMARK  305  A    between atoms: _758  and  _760
REMARK  306  A    between atoms: _760  and  _761
REMARK  307  A    between atoms: _760  and  _763
REMARK  308  A    between atoms: _763  and  _764
REMARK  309  A    between atoms: _764  and  _765
REMARK  310  A    between atoms: _770  and  _772
REMARK  311  A    between atoms: _772  and  _773
REMARK  312  A    between atoms: _776  and  _778
REMARK  313  A    between atoms: _778  and  _779
REMARK  314  A    between atoms: _778  and  _781
REMARK  315  A    between atoms: _781  and  _782
REMARK  316  A    between atoms: _787  and  _788
REMARK  317  A    between atoms: _790  and  _792
REMARK  318  A    between atoms: _792  and  _793
REMARK  319  A    between atoms: _792  and  _795
REMARK  320  A    between atoms: _795  and  _796
REMARK  321  A    between atoms: _799  and  _801
REMARK  322  A    between atoms: _801  and  _802
REMARK  323  A    between atoms: _801  and  _804
REMARK  324  A    between atoms: _804  and  _805
REMARK  325  A    between atoms: _808  and  _810
REMARK  326  A    between atoms: _810  and  _811
REMARK  327  A    between atoms: _810  and  _813
REMARK  328  A    between atoms: _813  and  _814
REMARK  329  A    between atoms: _815  and  _817
REMARK  330  A    between atoms: _817  and  _818
REMARK  331  A    between atoms: _817  and  _820
REMARK  332  A    between atoms: _823  and  _825
REMARK  333  A    between atoms: _825  and  _826
REMARK  334  A    between atoms: _825  and  _828
REMARK  335  A    between atoms: _828  and  _829
REMARK  336  A    between atoms: _829  and  _830
REMARK  337  A    between atoms: _833  and  _835
REMARK  338  A    between atoms: _835  and  _836
REMARK  339  A    between atoms: _835  and  _838
REMARK  340  A    between atoms: _838  and  _839
REMARK  341  A    between atoms: _849  and  _851
REMARK  342  A    between atoms: _851  and  _852
REMARK  343  A    between atoms: _851  and  _854
REMARK  344  A    between atoms: _854  and  _855
REMARK  345  A    between atoms: _858  and  _860
REMARK  346  A    between atoms: _860  and  _861
REMARK  347  A    between atoms: _860  and  _863
REMARK  348  A    between atoms: _863  and  _864
REMARK  349  A    between atoms: _864  and  _865
REMARK  350  A    between atoms: _865  and  _866
REMARK  351  A    between atoms: _866  and  _867
REMARK  352  A    between atoms: _871  and  _873
REMARK  353  A    between atoms: _873  and  _874
REMARK  354  A    between atoms: _873  and  _876
REMARK  355  A    between atoms: _876  and  _877
REMARK  356  A    between atoms: _882  and  _883
REMARK                            x       y       z     vdW  Elec       q    Type
REMARK                         _______ _______ _______ _____ _____    ______ ____
ROOT
ATOM      1  CA  MET A   1      23.022 -17.258   3.146  0.00  0.00    +0.134 C 
ENDROOT
BRANCH   1   2
ATOM      2  N   MET A   1      22.499 -18.610   3.012  0.00  0.00    -0.239 NA
ATOM      3  H   MET A   1      22.757 -19.337   3.710  0.00  0.00    +0.142 HD
ENDBRANCH   1   2
BRANCH   1   4
ATOM      4  C   MET A   1      24.069 -17.256   2.053  0.00  0.00    +0.224 C 
ATOM      5  O   MET A   1      24.826 -18.210   1.999  0.00  0.00    -0.287 OA
ENDBRANCH   1   4
BRANCH   1   6
ATOM      6  CB  MET A   1      23.685 -17.021   4.496  0.00  0.00    +0.037 C 
BRANCH   6   7
ATOM      7  CG  MET A   1      24.136 -15.560   4.640  0.00  0.00    +0.059 C 
BRANCH   7   8
ATOM      8  SD  MET A   1      22.688 -14.494   4.859  0.00  0.00    -0.139 S 
ATOM      9  CE  MET A   1      22.452 -14.690   6.548  0.00  0.00    +0.069 C 
ENDBRANCH   7   8
ENDBRANCH   6   7
ENDBRANCH   1   6
TORSDOF 5
REMARK  Name = ../refined-set-2016/3bzf/3bzf_pocket.pdb
REMARK  356 active torsions:
REMARK  status: ('A' for Active; 'I' for Inactive)
REMARK    1  A    between atoms: _1  and  _3
REMARK    2  A    between atoms: _3  and  _4
REMARK    3  A    between atoms: _3  and  _6
REMARK    4  A    between atoms: _6  and  _7
REMARK    5  A    between atoms: _10  and  _12
REMARK    6  A    between atoms: _12  and  _13
REMARK    7  A    between atoms: _12  and  _15
REMARK    8  A    between atoms: _15  and  _16
REMARK    9  A    between atoms: _16  and  _17
REMARK   10  A    between atoms: _17  and  _18
REMARK   11  A    between atoms: _18  and  _19
REMARK   12  A    between atoms: _23  and  _25
REMARK   13  A    between atoms: _25  and  _26
REMARK   14  A    between atoms: _25  and  _28
REMARK   15  A    between atoms: _28  and  _29
REMARK   16  A    between atoms: _34  and  _35
REMARK   17  A    between atoms: _37  and  _39
REMARK   18  A    between atoms: _39  and  _40
REMARK   19  A    between atoms: _39  and  _42
REMARK   20  A    between atoms: _42  and  _43
REMARK   21  A    between atoms: _49  and  _51
REMARK   22  A    between atoms: _51  and  _52
REMARK   23  A    between atoms: _51  and  _54
REMARK   24  A    between atoms: _54  and  _55
REMARK   25  A    between atoms: _60  and  _62
REMARK   26  A    between atoms: _62  and  _63
REMARK   27  A    between atoms: _62  and  _65
REMARK   28  A    between atoms: _65  and  _66
REMARK   29  A    between atoms: _72  and  _74
REMARK   30  A    between atoms: _74  and  _75
REMARK   31  A    between atoms: _74  and  _77
REMARK   32  A    between atoms: _77  and  _78
REMARK   33  A    between atoms: _81  and  _83
REMARK   34  A    between atoms: _83  and  _84
REMARK   35  A    between atoms: _83  and  _86
REMARK   36  A    between atoms: _86  and  _87
REMARK   37  A    between atoms: _89  and  _91
REMARK   38  A    between atoms: _91  and  _92
REMARK   39  A    between atoms: _91  and  _94
REMARK   40  A    between atoms: _97  and  _99
REMARK   41  A    between atoms: _99  and  _100
REMARK   42  A    between atoms: _102  and  _104
REMARK   43  A    between atoms: _104  and  _105
REMARK   44  A    between atoms: _104  and  _107
REMARK   45  A    between atoms: _107  and  _108
REMARK   46  A    between atoms: _114  and  _116
REMARK   47  A    between atoms: _116  and  _117
REMARK   48  A    between atoms: _116  and  _119
REMARK   49  A    between atoms: _122  and  _124
REMARK   50  A    between atoms: _124  and  _125
REMARK   51  A    between atoms: _124  and  _127
REMARK   52  A    between atoms: _127  and  _128
REMARK   53  A    between atoms: _128  and  _129
REMARK   54  A    between atoms: _129  and  _130
REMARK   55  A    between atoms: _139  and  _141
REMARK   56  A    between atoms: _141  and  _142
REMARK   57  A    between atoms: _141  and  _144
REMARK   58  A    between atoms: _144  and  _145
REMARK   59  A    between atoms: _151  and  _153
REMARK   60  A    between atoms: _153  and  _154
REMARK   61  A    between atoms: _153  and  _156
REMARK   62  A    between atoms: _156  and  _157
REMARK   63  A    between atoms: _157  and  _158
REMARK   64  A    between atoms: _160  and  _162
REMARK   65  A    between atoms: _162  and  _163
REMARK   66  A    between atoms: _162  and  _165
REMARK   67  A    between atoms: _165  and  _166
REMARK   68  A    between atoms: _171  and  _172
REMARK   69  A    between atoms: _174  and  _176
REMARK   70  A    between atoms: _176  and  _177
REMARK   71  A    between atoms: _176  and  _179
REMARK   72  A    between atoms: _179  and  _180
REMARK   73  A    between atoms: _180  and  _181
REMARK   74  A    between atoms: _181  and  _182
REMARK   75  A    between atoms: _191  and  _193
REMARK   76  A    between atoms: _193  and  _194
REMARK   77  A    between atoms: _193  and  _196
REMARK   78  A    between atoms: _196  and  _197
REMARK   79  A    between atoms: _197  and  _198
REMARK   80  A    between atoms: _201  and  _203
REMARK   81  A    between atoms: _203  and  _204
REMARK   82  A    between atoms: _203  and  _206
REMARK   83  A    between atoms: _206  and  _207
REMARK   84  A    between atoms: _210  and  _212
REMARK   85  A    between atoms: _212  and  _213
REMARK   86  A    between atoms: _212  and  _215
REMARK   87  A    between atoms: _215  and  _216
REMARK   88  A    between atoms: _216  and  _217
REMARK   89  A    between atoms: _217  and  _218
REMARK   90  A    between atoms: _227  and  _229
REMARK   91  A    between atoms: _229  and  _230
REMARK   92  A    between atoms: _229  and  _232
REMARK   93  A    between atoms: _232  and  _233
REMARK   94  A    between atoms: _235  and  _237
REMARK   95  A    between atoms: _237  and  _238
REMARK   96  A    between atoms: _241  and  _243
REMARK   97  A    between atoms: _243  and  _244
REMARK   98  A    between atoms: _243  and  _246
REMARK   99  A    between atoms: _246  and  _247
REMARK  100  A    between atoms: _247  and  _248
REMARK  101  A    between atoms: _248  and  _249
REMARK  102  A    between atoms: _258  and  _260
REMARK  103  A    between atoms: _260  and  _261
REMARK  104  A    between atoms: _260  and  _263
REMARK  105  A    between atoms: _263  and  _264
REMARK  106  A    between atoms: _267  and  _269
REMARK  107  A    between atoms: _269  and  _270
REMARK  108  A    between atoms: _269  and  _272
REMARK  109  A    between atoms: _272  and  _273
REMARK  110  A    between atoms: _276  and  _278
REMARK  111  A    between atoms: _278  and  _279
REMARK  112  A    between atoms: _282  and  _284
REMARK  113  A    between atoms: _284  and  _285
REMARK  114  A    between atoms: _284  and  _287
REMARK  115  A    between atoms: _287  and  _288
REMARK  116  A    between atoms: _288  and  _289
REMARK  117  A    between atoms: _294  and  _296
REMARK  118  A    between atoms: _296  and  _297
REMARK  119  A    between atoms: _296  and  _299
REMARK  120  A    between atoms: _299  and  _300
REMARK  121  A    between atoms: _303  and  _305
REMARK  122  A    between atoms: _305  and  _306
REMARK  123  A    between atoms: _305  and  _308
REMARK  124  A    between atoms: _308  and  _309
REMARK  125  A    between atoms: _315  and  _317
REMARK  126  A    between atoms: _317  and  _318
REMARK  127  A    between atoms: _317  and  _320
REMARK  128  A    between atoms: _320  and  _321
REMARK  129  A    between atoms: _321  and  _322
REMARK  130  A    between atoms: _322  and  _323
REMARK  131  A    between atoms: _332  and  _334
REMARK  132  A    between atoms: _334  and  _335
REMARK  133  A    between atoms: _334  and  _337
REMARK  134  A    between atoms: _340  and  _342
REMARK  135  A    between atoms: _342  and  _343
REMARK  136  A    between atoms: _342  and  _345
REMARK  137  A    between atoms: _345  and  _346
REMARK  138  A    between atoms: _351  and  _353
REMARK  139  A    between atoms: _353  and  _354
REMARK  140  A    between atoms: _353  and  _356
REMARK  141  A    between atoms: _356  and  _357
REMARK  142  A    between atoms: _360  and  _362
REMARK  143  A    between atoms: _362  and  _363
REMARK  144  A    between atoms: _362  and  _365
REMARK  145  A    between atoms: _365  and  _366
REMARK  146  A    between atoms: _366  and  _367
REMARK  147  A    between atoms: _367  and  _368
REMARK  148  A    between atoms: _377  and  _379
REMARK  149  A    between atoms: _379  and  _380
REMARK  150  A    between atoms: _379  and  _382
REMARK  151  A    between atoms: _382  and  _383
REMARK  152  A    between atoms: _386  and  _388
REMARK  153  A    between atoms: _388  and  _389
REMARK  154  A    between atoms: _388  and  _391
REMARK  155  A    between atoms: _391  and  _392
REMARK  156  A    between atoms: _395  and  _397
REMARK  157  A    between atoms: _397  and  _398
REMARK  158  A    between atoms: _397  and  _400
REMARK  159  A    between atoms: _400  and  _401
REMARK  160  A    between atoms: _406  and  _407
REMARK  161  A    between atoms: _409  and  _411
REMARK  162  A    between atoms: _411  and  _412
REMARK  163  A    between atoms: _411  and  _414
REMARK  164  A    between atoms: _414  and  _415
REMARK  165  A    between atoms: _420  and  _421
REMARK  166  A    between atoms: _423  and  _425
REMARK  167  A    between atoms: _425  and  _426
REMARK  168  A    between atoms: _425  and  _428
REMARK  169  A    between atoms: _428  and  _429
REMARK  170  A    between atoms: _432  and  _434
REMARK  171  A    between atoms: _434  and  _435
REMARK  172  A    between atoms: _434  and  _437
REMARK  173  A    between atoms: _437  and  _438
REMARK  174  A    between atoms: _438  and  _439
REMARK  175  A    between atoms: _444  and  _446
REMARK  176  A    between atoms: _446  and  _447
REMARK  177  A    between atoms: _446  and  _449
REMARK  178  A    between atoms: _449  and  _450
REMARK  179  A    between atoms: _460  and  _462
REMARK  180  A    between atoms: _462  and  _463
REMARK  181  A    between atoms: _462  and  _465
REMARK  182  A    between atoms: _465  and  _466
REMARK  183  A    between atoms: _466  and  _467
REMARK  184  A    between atoms: _469  and  _471
REMARK  185  A    between atoms: _471  and  _472
REMARK  186  A    between atoms: _471  and  _474
REMARK  187  A    between atoms: _474  and  _475
REMARK  188  A    between atoms: _480  and  _482
REMARK  189  A    between atoms: _482  and  _483
REMARK  190  A    between atoms: _485  and  _487
REMARK  191  A    between atoms: _487  and  _488
REMARK  192  A    between atoms: _487  and  _490
REMARK  193  A    between atoms: _490  and  _491
REMARK  194  A    between atoms: _491  and  _814
REMARK  195  A    between atoms: _492  and  _494
REMARK  196  A    between atoms: _494  and  _495
REMARK  197  A    between atoms: _494  and  _497
REMARK  198  A    between atoms: _497  and  _498
REMARK  199  A    between atoms: _498  and  _499
REMARK  200  A    between atoms: _502  and  _504
REMARK  201  A    between atoms: _504  and  _505
REMARK  202  A    between atoms: _504  and  _507
REMARK  203  A    between atoms: _507  and  _508
REMARK  204  A    between atoms: _508  and  _509
REMARK  205  A    between atoms: _514  and  _516
REMARK  206  A    between atoms: _516  and  _517
REMARK  207  A    between atoms: _516  and  _519
REMARK  208  A    between atoms: _519  and  _520
REMARK  209  A    between atoms: _526  and  _528
REMARK  210  A    between atoms: _528  and  _529
REMARK  211  A    between atoms: _532  and  _534
REMARK  212  A    between atoms: _534  and  _535
REMARK  213  A    between atoms: _534  and  _537
REMARK  214  A    between atoms: _537  and  _538
REMARK  215  A    between atoms: _543  and  _544
REMARK  216  A    between atoms: _546  and  _548
REMARK  217  A    between atoms: _548  and  _549
REMARK  218  A    between atoms: _548  and  _551
REMARK  219  A    between atoms: _551  and  _552
REMARK  220  A    between atoms: _557  and  _558
REMARK  221  A    between atoms: _560  and  _562
REMARK  222  A    between atoms: _562  and  _563
REMARK  223  A    between atoms: _562  and  _565
REMARK  224  A    between atoms: _565  and  _566
REMARK  225  A    between atoms: _569  and  _571
REMARK  226  A    between atoms: _571  and  _572
REMARK  227  A    between atoms: _571  and  _574
REMARK  228  A    between atoms: _574  and  _575
REMARK  229  A    between atoms: _578  and  _580
REMARK  230  A    between atoms: _580  and  _581
REMARK  231  A    between atoms: _580  and  _583
REMARK  232  A    between atoms: _583  and  _584
REMARK  233  A    between atoms: _587  and  _589
REMARK  234  A    between atoms: _589  and  _590
REMARK  235  A    between atoms: _589  and  _592
REMARK  236  A    between atoms: _592  and  _593
REMARK  237  A    between atoms: _603  and  _605
REMARK  238  A    between atoms: _605  and  _606
REMARK  239  A    between atoms: _605  and  _608
REMARK  240  A    between atoms: _608  and  _609
REMARK  241  A    between atoms: _612  and  _614
REMARK  242  A    between atoms: _614  and  _615
REMARK  243  A    between atoms: _618  and  _620
REMARK  244  A    between atoms: _620  and  _621
REMARK  245  A    between atoms: _624  and  _626
REMARK  246  A    between atoms: _626  and  _627
REMARK  247  A    between atoms: _626  and  _629
REMARK  248  A    between atoms: _629  and  _630
REMARK  249  A    between atoms: _630  and  _631
REMARK  250  A    between atoms: _636  and  _638
REMARK  251  A    between atoms: _638  and  _639
REMARK  252  A    between atoms: _638  and  _641
REMARK  253  A    between atoms: _641  and  _642
REMARK  254  A    between atoms: _645  and  _647
REMARK  255  A    between atoms: _647  and  _648
REMARK  256  A    between atoms: _647  and  _650
REMARK  257  A    between atoms: _650  and  _651
REMARK  258  A    between atoms: _653  and  _655
REMARK  259  A    between atoms: _655  and  _656
REMARK  260  A    between atoms: _655  and  _658
REMARK  261  A    between atoms: _658  and  _659
REMARK  262  A    between atoms: _659  and  _660
REMARK  263  A    between atoms: _663  and  _665
REMARK  264  A    between atoms: _665  and  _666
REMARK  265  A    between atoms: _665  and  _668
REMARK  266  A    between atoms: _668  and  _669
REMARK  267  A    between atoms: _669  and  _670
REMARK  268  A    between atoms: _675  and  _677
REMARK  269  A    between atoms: _677  and  _678
REMARK  270  A    between atoms: _677  and  _680
REMARK  271  A    between atoms: _680  and  _681
REMARK  272  A    between atoms: _681  and  _682
REMARK  273  A    between atoms: _682  and  _683
REMARK  274  A    between atoms: _683  and  _684
REMARK  275  A    between atoms: _688  and  _690
REMARK  276  A    between atoms: _690  and  _691
REMARK  277  A    between atoms: _690  and  _693
REMARK  278  A    between atoms: _693  and  _694
REMARK  279  A    between atoms: _696  and  _698
REMARK  280  A    between atoms: _698  and  _699
REMARK  281  A    between atoms: _698  and  _701
REMARK  282  A    between atoms: _701  and  _702
REMARK  283  A    between atoms: _707  and  _709
REMARK  284  A    between atoms: _709  and  _710
REMARK  285  A    between atoms: _713  and  _715
REMARK  286  A    between atoms: _715  and  _716
REMARK  287  A    between atoms: _715  and  _718
REMARK  288  A    between atoms: _718  and  _719
REMARK  289  A    between atoms: _721  and  _723
REMARK  290  A    between atoms: _723  and  _724
REMARK  291  A    between atoms: _723  and  _726
REMARK  292  A    between atoms: _726  and  _727
REMARK  293  A    between atoms: _727  and  _728
REMARK  294  A    between atoms: _731  and  _733
REMARK  295  A    between atoms: _733  and  _734
REMARK  296  A    between atoms: _737  and  _739
REMARK  297  A    between atoms: _739  and  _740
REMARK  298  A    between atoms: _739  and  _742
REMARK  299  A    between atoms: _742  and  _743
REMARK  300  A    between atoms: _743  and  _744
REMARK  301  A    between atoms: _747  and  _749
REMARK  302  A    between atoms: _749  and  _750
REMARK  303  A    between atoms: _749  and  _752
REMARK  304  A    between atoms: _752  and  _753
REMARK  305  A    between atoms: _758  and  _760
REMARK  306  A    between atoms: _760  and  _761
REMARK  307  A    between atoms: _760  and  _763
REMARK  308  A    between atoms: _763  and  _764
REMARK  309  A    between atoms: _764  and  _765
REMARK  310  A    between atoms: _770  and  _772
REMARK  311  A    between atoms: _772  and  _773
REMARK  312  A    between atoms: _776  and  _778
REMARK  313  A    between atoms: _778  and  _779
REMARK  314  A    between atoms: _778  and  _781
REMARK  315  A    between atoms: _781  and  _782
REMARK  316  A    between atoms: _787  and  _788
REMARK  317  A    between atoms: _790  and  _792
REMARK  318  A    between atoms: _792  and  _793
REMARK  319  A    between atoms: _792  and  _795
REMARK  320  A    between atoms: _795  and  _796
REMARK  321  A    between atoms: _799  and  _801
REMARK  322  A    between atoms: _801  and  _802
REMARK  323  A    between atoms: _801  and  _804
REMARK  324  A    between atoms: _804  and  _805
REMARK  325  A    between atoms: _808  and  _810
REMARK  326  A    between atoms: _810  and  _811
REMARK  327  A    between atoms: _810  and  _813
REMARK  328  A    between atoms: _813  and  _814
REMARK  329  A    between atoms: _815  and  _817
REMARK  330  A    between atoms: _817  and  _818
REMARK  331  A    between atoms: _817  and  _820
REMARK  332  A    between atoms: _823  and  _825
REMARK  333  A    between atoms: _825  and  _826
REMARK  334  A    between atoms: _825  and  _828
REMARK  335  A    between atoms: _828  and  _829
REMARK  336  A    between atoms: _829  and  _830
REMARK  337  A    between atoms: _833  and  _835
REMARK  338  A    between atoms: _835  and  _836
REMARK  339  A    between atoms: _835  and  _838
REMARK  340  A    between atoms: _838  and  _839
REMARK  341  A    between atoms: _849  and  _851
REMARK  342  A    between atoms: _851  and  _852
REMARK  343  A    between atoms: _851  and  _854
REMARK  344  A    between atoms: _854  and  _855
REMARK  345  A    between atoms: _858  and  _860
REMARK  346  A    between atoms: _860  and  _861
REMARK  347  A    between atoms: _860  and  _863
REMARK  348  A    between atoms: _863  and  _864
REMARK  349  A    between atoms: _864  and  _865
REMARK  350  A    between atoms: _865  and  _866
REMARK  351  A    between atoms: _866  and  _867
REMARK  352  A    between atoms: _871  and  _873
REMARK  353  A    between atoms: _873  and  _874
REMARK  354  A    between atoms: _873  and  _876
REMARK  355  A    between atoms: _876  and  _877
REMARK  356  A    between atoms: _882  and  _883
REMARK                            x       y       z     vdW  Elec       q    Type
REMARK                         _______ _______ _______ _____ _____    ______ ____
ROOT
ATOM      1  CG  TYR A   1      30.644 -16.295   7.015  0.00  0.00    -0.020 A 
ATOM      2  CD2 TYR A   1      30.640 -15.547   8.155  0.00  0.00    -0.001 A 
ATOM      3  CE2 TYR A   1      29.912 -14.336   8.240  0.00  0.00    +0.036 A 
ATOM      4  CZ  TYR A   1      29.130 -13.914   7.173  0.00  0.00    +0.134 A 
ATOM      5  CE1 TYR A   1      29.089 -14.654   6.056  0.00  0.00    +0.036 A 
ATOM      6  CD1 TYR A   1      29.818 -15.877   5.971  0.00  0.00    -0.001 A 
ENDROOT
BRANCH   4   7
ATOM      7  OH  TYR A   1      28.373 -12.773   7.261  0.00  0.00    -0.506 OA
ATOM      8  HH  TYR A   1      28.518 -12.349   8.144  0.00  0.00    +0.292 HD
ENDBRANCH   4   7
BRANCH   1   9
ATOM      9  CB  TYR A   1      31.417 -17.574   6.906  0.00  0.00    +0.051 C 
BRANCH   9  10
ATOM     10  CA  TYR A   1      30.804 -18.725   7.671  0.00  0.00    +0.137 C 
BRANCH  10  11
ATOM     11  N   TYR A   1      31.695 -19.890   7.599  0.00  0.00    -0.239 NA
ATOM     12  H   TYR A   1      32.678 -19.780   7.279  0.00  0.00    +0.142 HD
ENDBRANCH  10  11
BRANCH  10  13
ATOM     13  C   TYR A   1      29.441 -18.907   7.050  0.00  0.00    +0.224 C 
ATOM     14  O   TYR A   1      28.433 -18.453   7.605  0.00  0.00    -0.287 OA
ENDBRANCH  10  13
ENDBRANCH   9  10
ENDBRANCH   1   9
TORSDOF 5
REMARK  Name = ../refined-set-2016/3bzf/3bzf_pocket.pdb
REMARK  356 active torsions:
REMARK  status: ('A' for Active; 'I' for Inactive)
REMARK    1  A    between atoms: _1  and  _3
REMARK    2  A    between atoms: _3  and  _4
REMARK    3  A    between atoms: _3  and  _6
REMARK    4  A    between atoms: _6  and  _7
REMARK    5  A    between atoms: _10  and  _12
REMARK    6  A    between atoms: _12  and  _13
REMARK    7  A    between atoms: _12  and  _15
REMARK    8  A    between atoms: _15  and  _16
REMARK    9  A    between atoms: _16  and  _17
REMARK   10  A    between atoms: _17  and  _18
REMARK   11  A    between atoms: _18  and  _19
REMARK   12  A    between atoms: _23  and  _25
REMARK   13  A    between atoms: _25  and  _26
REMARK   14  A    between atoms: _25  and  _28
REMARK   15  A    between atoms: _28  and  _29
REMARK   16  A    between atoms: _34  and  _35
REMARK   17  A    between atoms: _37  and  _39
REMARK   18  A    between atoms: _39  and  _40
REMARK   19  A    between atoms: _39  and  _42
REMARK   20  A    between atoms: _42  and  _43
REMARK   21  A    between atoms: _49  and  _51
REMARK   22  A    between atoms: _51  and  _52
REMARK   23  A    between atoms: _51  and  _54
REMARK   24  A    between atoms: _54  and  _55
REMARK   25  A    between atoms: _60  and  _62
REMARK   26  A    between atoms: _62  and  _63
REMARK   27  A    between atoms: _62  and  _65
REMARK   28  A    between atoms: _65  and  _66
REMARK   29  A    between atoms: _72  and  _74
REMARK   30  A    between atoms: _74  and  _75
REMARK   31  A    between atoms: _74  and  _77
REMARK   32  A    between atoms: _77  and  _78
REMARK   33  A    between atoms: _81  and  _83
REMARK   34  A    between atoms: _83  and  _84
REMARK   35  A    between atoms: _83  and  _86
REMARK   36  A    between atoms: _86  and  _87
REMARK   37  A    between atoms: _89  and  _91
REMARK   38  A    between atoms: _91  and  _92
REMARK   39  A    between atoms: _91  and  _94
REMARK   40  A    between atoms: _97  and  _99
REMARK   41  A    between atoms: _99  and  _100
REMARK   42  A    between atoms: _102  and  _104
REMARK   43  A    between atoms: _104  and  _105
REMARK   44  A    between atoms: _104  and  _107
REMARK   45  A    between atoms: _107  and  _108
REMARK   46  A    between atoms: _114  and  _116
REMARK   47  A    between atoms: _116  and  _117
REMARK   48  A    between atoms: _116  and  _119
REMARK   49  A    between atoms: _122  and  _124
REMARK   50  A    between atoms: _124  and  _125
REMARK   51  A    between atoms: _124  and  _127
REMARK   52  A    between atoms: _127  and  _128
REMARK   53  A    between atoms: _128  and  _129
REMARK   54  A    between atoms: _129  and  _130
REMARK   55  A    between atoms: _139  and  _141
REMARK   56  A    between atoms: _141  and  _142
REMARK   57  A    between atoms: _141  and  _144
REMARK   58  A    between atoms: _144  and  _145
REMARK   59  A    between atoms: _151  and  _153
REMARK   60  A    between atoms: _153  and  _154
REMARK   61  A    between atoms: _153  and  _156
REMARK   62  A    between atoms: _156  and  _157
REMARK   63  A    between atoms: _157  and  _158
REMARK   64  A    between atoms: _160  and  _162
REMARK   65  A    between atoms: _162  and  _163
REMARK   66  A    between atoms: _162  and  _165
REMARK   67  A    between atoms: _165  and  _166
REMARK   68  A    between atoms: _171  and  _172
REMARK   69  A    between atoms: _174  and  _176
REMARK   70  A    between atoms: _176  and  _177
REMARK   71  A    between atoms: _176  and  _179
REMARK   72  A    between atoms: _179  and  _180
REMARK   73  A    between atoms: _180  and  _181
REMARK   74  A    between atoms: _181  and  _182
REMARK   75  A    between atoms: _191  and  _193
REMARK   76  A    between atoms: _193  and  _194
REMARK   77  A    between atoms: _193  and  _196
REMARK   78  A    between atoms: _196  and  _197
REMARK   79  A    between atoms: _197  and  _198
REMARK   80  A    between atoms: _201  and  _203
REMARK   81  A    between atoms: _203  and  _204
REMARK   82  A    between atoms: _203  and  _206
REMARK   83  A    between atoms: _206  and  _207
REMARK   84  A    between atoms: _210  and  _212
REMARK   85  A    between atoms: _212  and  _213
REMARK   86  A    between atoms: _212  and  _215
REMARK   87  A    between atoms: _215  and  _216
REMARK   88  A    between atoms: _216  and  _217
REMARK   89  A    between atoms: _217  and  _218
REMARK   90  A    between atoms: _227  and  _229
REMARK   91  A    between atoms: _229  and  _230
REMARK   92  A    between atoms: _229  and  _232
REMARK   93  A    between atoms: _232  and  _233
REMARK   94  A    between atoms: _235  and  _237
REMARK   95  A    between atoms: _237  and  _238
REMARK   96  A    between atoms: _241  and  _243
REMARK   97  A    between atoms: _243  and  _244
REMARK   98  A    between atoms: _243  and  _246
REMARK   99  A    between atoms: _246  and  _247
REMARK  100  A    between atoms: _247  and  _248
REMARK  101  A    between atoms: _248  and  _249
REMARK  102  A    between atoms: _258  and  _260
REMARK  103  A    between atoms: _260  and  _261
REMARK  104  A    between atoms: _260  and  _263
REMARK  105  A    between atoms: _263  and  _264
REMARK  106  A    between atoms: _267  and  _269
REMARK  107  A    between atoms: _269  and  _270
REMARK  108  A    between atoms: _269  and  _272
REMARK  109  A    between atoms: _272  and  _273
REMARK  110  A    between atoms: _276  and  _278
REMARK  111  A    between atoms: _278  and  _279
REMARK  112  A    between atoms: _282  and  _284
REMARK  113  A    between atoms: _284  and  _285
REMARK  114  A    between atoms: _284  and  _287
REMARK  115  A    between atoms: _287  and  _288
REMARK  116  A    between atoms: _288  and  _289
REMARK  117  A    between atoms: _294  and  _296
REMARK  118  A    between atoms: _296  and  _297
REMARK  119  A    between atoms: _296  and  _299
REMARK  120  A    between atoms: _299  and  _300
REMARK  121  A    between atoms: _303  and  _305
REMARK  122  A    between atoms: _305  and  _306
REMARK  123  A    between atoms: _305  and  _308
REMARK  124  A    between atoms: _308  and  _309
REMARK  125  A    between atoms: _315  and  _317
REMARK  126  A    between atoms: _317  and  _318
REMARK  127  A    between atoms: _317  and  _320
REMARK  128  A    between atoms: _320  and  _321
REMARK  129  A    between atoms: _321  and  _322
REMARK  130  A    between atoms: _322  and  _323
REMARK  131  A    between atoms: _332  and  _334
REMARK  132  A    between atoms: _334  and  _335
REMARK  133  A    between atoms: _334  and  _337
REMARK  134  A    between atoms: _340  and  _342
REMARK  135  A    between atoms: _342  and  _343
REMARK  136  A    between atoms: _342  and  _345
REMARK  137  A    between atoms: _345  and  _346
REMARK  138  A    between atoms: _351  and  _353
REMARK  139  A    between atoms: _353  and  _354
REMARK  140  A    between atoms: _353  and  _356
REMARK  141  A    between atoms: _356  and  _357
REMARK  142  A    between atoms: _360  and  _362
REMARK  143  A    between atoms: _362  and  _363
REMARK  144  A    between atoms: _362  and  _365
REMARK  145  A    between atoms: _365  and  _366
REMARK  146  A    between atoms: _366  and  _367
REMARK  147  A    between atoms: _367  and  _368
REMARK  148  A    between atoms: _377  and  _379
REMARK  149  A    between atoms: _379  and  _380
REMARK  150  A    between atoms: _379  and  _382
REMARK  151  A    between atoms: _382  and  _383
REMARK  152  A    between atoms: _386  and  _388
REMARK  153  A    between atoms: _388  and  _389
REMARK  154  A    between atoms: _388  and  _391
REMARK  155  A    between atoms: _391  and  _392
REMARK  156  A    between atoms: _395  and  _397
REMARK  157  A    between atoms: _397  and  _398
REMARK  158  A    between atoms: _397  and  _400
REMARK  159  A    between atoms: _400  and  _401
REMARK  160  A    between atoms: _406  and  _407
REMARK  161  A    between atoms: _409  and  _411
REMARK  162  A    between atoms: _411  and  _412
REMARK  163  A    between atoms: _411  and  _414
REMARK  164  A    between atoms: _414  and  _415
REMARK  165  A    between atoms: _420  and  _421
REMARK  166  A    between atoms: _423  and  _425
REMARK  167  A    between atoms: _425  and  _426
REMARK  168  A    between atoms: _425  and  _428
REMARK  169  A    between atoms: _428  and  _429
REMARK  170  A    between atoms: _432  and  _434
REMARK  171  A    between atoms: _434  and  _435
REMARK  172  A    between atoms: _434  and  _437
REMARK  173  A    between atoms: _437  and  _438
REMARK  174  A    between atoms: _438  and  _439
REMARK  175  A    between atoms: _444  and  _446
REMARK  176  A    between atoms: _446  and  _447
REMARK  177  A    between atoms: _446  and  _449
REMARK  178  A    between atoms: _449  and  _450
REMARK  179  A    between atoms: _460  and  _462
REMARK  180  A    between atoms: _462  and  _463
REMARK  181  A    between atoms: _462  and  _465
REMARK  182  A    between atoms: _465  and  _466
REMARK  183  A    between atoms: _466  and  _467
REMARK  184  A    between atoms: _469  and  _471
REMARK  185  A    between atoms: _471  and  _472
REMARK  186  A    between atoms: _471  and  _474
REMARK  187  A    between atoms: _474  and  _475
REMARK  188  A    between atoms: _480  and  _482
REMARK  189  A    between atoms: _482  and  _483
REMARK  190  A    between atoms: _485  and  _487
REMARK  191  A    between atoms: _487  and  _488
REMARK  192  A    between atoms: _487  and  _490
REMARK  193  A    between atoms: _490  and  _491
REMARK  194  A    between atoms: _491  and  _814
REMARK  195  A    between atoms: _492  and  _494
REMARK  196  A    between atoms: _494  and  _495
REMARK  197  A    between atoms: _494  and  _497
REMARK  198  A    between atoms: _497  and  _498
REMARK  199  A    between atoms: _498  and  _499
REMARK  200  A    between atoms: _502  and  _504
REMARK  201  A    between atoms: _504  and  _505
REMARK  202  A    between atoms: _504  and  _507
REMARK  203  A    between atoms: _507  and  _508
REMARK  204  A    between atoms: _508  and  _509
REMARK  205  A    between atoms: _514  and  _516
REMARK  206  A    between atoms: _516  and  _517
REMARK  207  A    between atoms: _516  and  _519
REMARK  208  A    between atoms: _519  and  _520
REMARK  209  A    between atoms: _526  and  _528
REMARK  210  A    between atoms: _528  and  _529
REMARK  211  A    between atoms: _532  and  _534
REMARK  212  A    between atoms: _534  and  _535
REMARK  213  A    between atoms: _534  and  _537
REMARK  214  A    between atoms: _537  and  _538
REMARK  215  A    between atoms: _543  and  _544
REMARK  216  A    between atoms: _546  and  _548
REMARK  217  A    between atoms: _548  and  _549
REMARK  218  A    between atoms: _548  and  _551
REMARK  219  A    between atoms: _551  and  _552
REMARK  220  A    between atoms: _557  and  _558
REMARK  221  A    between atoms: _560  and  _562
REMARK  222  A    between atoms: _562  and  _563
REMARK  223  A    between atoms: _562  and  _565
REMARK  224  A    between atoms: _565  and  _566
REMARK  225  A    between atoms: _569  and  _571
REMARK  226  A    between atoms: _571  and  _572
REMARK  227  A    between atoms: _571  and  _574
REMARK  228  A    between atoms: _574  and  _575
REMARK  229  A    between atoms: _578  and  _580
REMARK  230  A    between atoms: _580  and  _581
REMARK  231  A    between atoms: _580  and  _583
REMARK  232  A    between atoms: _583  and  _584
REMARK  233  A    between atoms: _587  and  _589
REMARK  234  A    between atoms: _589  and  _590
REMARK  235  A    between atoms: _589  and  _592
REMARK  236  A    between atoms: _592  and  _593
REMARK  237  A    between atoms: _603  and  _605
REMARK  238  A    between atoms: _605  and  _606
REMARK  239  A    between atoms: _605  and  _608
REMARK  240  A    between atoms: _608  and  _609
REMARK  241  A    between atoms: _612  and  _614
REMARK  242  A    between atoms: _614  and  _615
REMARK  243  A    between atoms: _618  and  _620
REMARK  244  A    between atoms: _620  and  _621
REMARK  245  A    between atoms: _624  and  _626
REMARK  246  A    between atoms: _626  and  _627
REMARK  247  A    between atoms: _626  and  _629
REMARK  248  A    between atoms: _629  and  _630
REMARK  249  A    between atoms: _630  and  _631
REMARK  250  A    between atoms: _636  and  _638
REMARK  251  A    between atoms: _638  and  _639
REMARK  252  A    between atoms: _638  and  _641
REMARK  253  A    between atoms: _641  and  _642
REMARK  254  A    between atoms: _645  and  _647
REMARK  255  A    between atoms: _647  and  _648
REMARK  256  A    between atoms: _647  and  _650
REMARK  257  A    between atoms: _650  and  _651
REMARK  258  A    between atoms: _653  and  _655
REMARK  259  A    between atoms: _655  and  _656
REMARK  260  A    between atoms: _655  and  _658
REMARK  261  A    between atoms: _658  and  _659
REMARK  262  A    between atoms: _659  and  _660
REMARK  263  A    between atoms: _663  and  _665
REMARK  264  A    between atoms: _665  and  _666
REMARK  265  A    between atoms: _665  and  _668
REMARK  266  A    between atoms: _668  and  _669
REMARK  267  A    between atoms: _669  and  _670
REMARK  268  A    between atoms: _675  and  _677
REMARK  269  A    between atoms: _677  and  _678
REMARK  270  A    between atoms: _677  and  _680
REMARK  271  A    between atoms: _680  and  _681
REMARK  272  A    between atoms: _681  and  _682
REMARK  273  A    between atoms: _682  and  _683
REMARK  274  A    between atoms: _683  and  _684
REMARK  275  A    between atoms: _688  and  _690
REMARK  276  A    between atoms: _690  and  _691
REMARK  277  A    between atoms: _690  and  _693
REMARK  278  A    between atoms: _693  and  _694
REMARK  279  A    between atoms: _696  and  _698
REMARK  280  A    between atoms: _698  and  _699
REMARK  281  A    between atoms: _698  and  _701
REMARK  282  A    between atoms: _701  and  _702
REMARK  283  A    between atoms: _707  and  _709
REMARK  284  A    between atoms: _709  and  _710
REMARK  285  A    between atoms: _713  and  _715
REMARK  286  A    between atoms: _715  and  _716
REMARK  287  A    between atoms: _715  and  _718
REMARK  288  A    between atoms: _718  and  _719
REMARK  289  A    between atoms: _721  and  _723
REMARK  290  A    between atoms: _723  and  _724
REMARK  291  A    between atoms: _723  and  _726
REMARK  292  A    between atoms: _726  and  _727
REMARK  293  A    between atoms: _727  and  _728
REMARK  294  A    between atoms: _731  and  _733
REMARK  295  A    between atoms: _733  and  _734
REMARK  296  A    between atoms: _737  and  _739
REMARK  297  A    between atoms: _739  and  _740
REMARK  298  A    between atoms: _739  and  _742
REMARK  299  A    between atoms: _742  and  _743
REMARK  300  A    between atoms: _743  and  _744
REMARK  301  A    between atoms: _747  and  _749
REMARK  302  A    between atoms: _749  and  _750
REMARK  303  A    between atoms: _749  and  _752
REMARK  304  A    between atoms: _752  and  _753
REMARK  305  A    between atoms: _758  and  _760
REMARK  306  A    between atoms: _760  and  _761
REMARK  307  A    between atoms: _760  and  _763
REMARK  308  A    between atoms: _763  and  _764
REMARK  309  A    between atoms: _764  and  _765
REMARK  310  A    between atoms: _770  and  _772
REMARK  311  A    between atoms: _772  and  _773
REMARK  312  A    between atoms: _776  and  _778
REMARK  313  A    between atoms: _778  and  _779
REMARK  314  A    between atoms: _778  and  _781
REMARK  315  A    between atoms: _781  and  _782
REMARK  316  A    between atoms: _787  and  _788
REMARK  317  A    between atoms: _790  and  _792
REMARK  318  A    between atoms: _792  and  _793
REMARK  319  A    between atoms: _792  and  _795
REMARK  320  A    between atoms: _795  and  _796
REMARK  321  A    between atoms: _799  and  _801
REMARK  322  A    between atoms: _801  and  _802
REMARK  323  A    between atoms: _801  and  _804
REMARK  324  A    between atoms: _804  and  _805
REMARK  325  A    between atoms: _808  and  _810
REMARK  326  A    between atoms: _810  and  _811
REMARK  327  A    between atoms: _810  and  _813
REMARK  328  A    between atoms: _813  and  _814
REMARK  329  A    between atoms: _815  and  _817
REMARK  330  A    between atoms: _817  and  _818
REMARK  331  A    between atoms: _817  and  _820
REMARK  332  A    between atoms: _823  and  _825
REMARK  333  A    between atoms: _825  and  _826
REMARK  334  A    between atoms: _825  and  _828
REMARK  335  A    between atoms: _828  and  _829
REMARK  336  A    between atoms: _829  and  _830
REMARK  337  A    between atoms: _833  and  _835
REMARK  338  A    between atoms: _835  and  _836
REMARK  339  A    between atoms: _835  and  _838
REMARK  340  A    between atoms: _838  and  _839
REMARK  341  A    between atoms: _849  and  _851
REMARK  342  A    between atoms: _851  and  _852
REMARK  343  A    between atoms: _851  and  _854
REMARK  344  A    between atoms: _854  and  _855
REMARK  345  A    between atoms: _858  and  _860
REMARK  346  A    between atoms: _860  and  _861
REMARK  347  A    between atoms: _860  and  _863
REMARK  348  A    between atoms: _863  and  _864
REMARK  349  A    between atoms: _864  and  _865
REMARK  350  A    between atoms: _865  and  _866
REMARK  351  A    between atoms: _866  and  _867
REMARK  352  A    between atoms: _871  and  _873
REMARK  353  A    between atoms: _873  and  _874
REMARK  354  A    between atoms: _873  and  _876
REMARK  355  A    between atoms: _876  and  _877
REMARK  356  A    between atoms: _882  and  _883
REMARK                            x       y       z     vdW  Elec       q    Type
REMARK                         _______ _______ _______ _____ _____    ______ ____
ROOT
ATOM      1  CA  GLN A  11      11.268 -21.437  12.267  0.00  0.00    +0.149 C 
ENDROOT
BRANCH   1   3
ATOM      2  C   ALA A  10      11.575 -19.599  10.780  0.00  0.00    +0.241 C 
ATOM      3  N   GLN A  11      12.097 -20.638  11.410  0.00  0.00    -0.297 N 
ATOM      4  H   GLN A  11      13.102 -20.875  11.285  0.00  0.00    +0.150 HD
ATOM      5  O   ALA A  10      10.343 -19.217  10.902  0.00  0.00    -0.273 OA
BRANCH   2   6
ATOM      6  CA  ALA A  10      12.599 -18.785  10.002  0.00  0.00    +0.149 C 
ATOM      7  CB  ALA A  10      13.026 -19.519   8.728  0.00  0.00    +0.031 C 
BRANCH   6  10
ATOM      8  C   THR A   9      13.685 -18.010  12.045  0.00  0.00    +0.243 C 
ATOM      9  O   THR A   9      12.632 -17.647  12.537  0.00  0.00    -0.273 OA
ATOM     10  N   ALA A  10      13.797 -18.534  10.854  0.00  0.00    -0.297 N 
ATOM     11  H   ALA A  10      14.740 -18.781  10.493  0.00  0.00    +0.150 HD
BRANCH   8  12
ATOM     12  CA  THR A   9      15.027 -17.864  12.817  0.00  0.00    +0.176 C 
BRANCH  12  15
ATOM     13  C   ASP A   8      15.504 -20.183  12.901  0.00  0.00    +0.241 C 
ATOM     14  O   ASP A   8      14.448 -20.420  13.466  0.00  0.00    -0.273 OA
ATOM     15  N   THR A   9      15.893 -18.957  12.585  0.00  0.00    -0.295 N 
ATOM     16  H   THR A   9      16.832 -18.799  12.168  0.00  0.00    +0.150 HD
BRANCH  13  17
ATOM     17  CA  ASP A   8      16.446 -21.297  12.641  0.00  0.00    +0.160 C 
BRANCH  17  19
ATOM     18  C   ARG A   7      16.235 -21.256  10.321  0.00  0.00    +0.241 C 
ATOM     19  N   ASP A   8      17.001 -21.168  11.367  0.00  0.00    -0.297 N 
ATOM     20  H   ASP A   8      18.022 -21.002  11.255  0.00  0.00    +0.150 HD
ATOM     21  O   ARG A   7      14.995 -21.339  10.390  0.00  0.00    -0.273 OA
BRANCH  18  22
ATOM     22  CA  ARG A   7      16.916 -21.078   9.038  0.00  0.00    +0.149 C 
BRANCH  22  25
ATOM     23  C   ALA A   6      17.514 -18.759   9.267  0.00  0.00    +0.241 C 
ATOM     24  O   ALA A   6      16.367 -18.526   9.538  0.00  0.00    -0.273 OA
ATOM     25  N   ARG A   7      17.872 -19.982   8.981  0.00  0.00    -0.297 N 
ATOM     26  H   ARG A   7      18.857 -20.176   8.708  0.00  0.00    +0.150 HD
BRANCH  23  27
ATOM     27  CA  ALA A   6      18.623 -17.676   9.206  0.00  0.00    +0.149 C 
ATOM     28  CB  ALA A   6      18.987 -17.282   7.717  0.00  0.00    +0.031 C 
BRANCH  27  31
ATOM     29  C   SER A   5      19.737 -18.369  11.163  0.00  0.00    +0.243 C 
ATOM     30  O   SER A   5      18.701 -18.224  11.853  0.00  0.00    -0.273 OA
ATOM     31  N   ALA A   6      19.797 -18.116   9.877  0.00  0.00    -0.297 N 
ATOM     32  H   ALA A   6      20.689 -18.235   9.356  0.00  0.00    +0.150 HD
BRANCH  29  33
ATOM     33  CA  SER A   5      21.034 -18.900  11.788  0.00  0.00    +0.178 C 
BRANCH  33  36
ATOM     34  C   ARG A   4      20.974 -21.084  10.744  0.00  0.00    +0.241 C 
ATOM     35  O   ARG A   4      19.900 -21.326  11.308  0.00  0.00    -0.273 OA
ATOM     36  N   SER A   5      21.621 -19.936  10.936  0.00  0.00    -0.295 N 
ATOM     37  H   SER A   5      22.542 -19.775  10.481  0.00  0.00    +0.150 HD
BRANCH  34  38
ATOM     38  CA  ARG A   4      21.729 -22.127   9.900  0.00  0.00    +0.149 C 
BRANCH  38  40
ATOM     39  C   THR A   3      21.671 -20.973   7.779  0.00  0.00    +0.243 C 
ATOM     40  N   ARG A   4      22.369 -21.477   8.779  0.00  0.00    -0.297 N 
ATOM     41  H   ARG A   4      23.406 -21.405   8.760  0.00  0.00    +0.150 HD
ATOM     42  O   THR A   3      20.386 -20.883   7.807  0.00  0.00    -0.273 OA
BRANCH  39  43
ATOM     43  CA  THR A   3      22.515 -20.403   6.628  0.00  0.00    +0.176 C 
BRANCH  43  46
ATOM     44  C   GLU A   2      23.531 -18.757   8.000  0.00  0.00    +0.241 C 
ATOM     45  O   GLU A   2      22.424 -18.285   8.222  0.00  0.00    -0.273 OA
ATOM     46  N   THR A   3      23.708 -19.782   7.192  0.00  0.00    -0.295 N 
ATOM     47  H   THR A   3      24.660 -20.134   6.965  0.00  0.00    +0.150 HD
BRANCH  44  48
ATOM     48  CA  GLU A   2      24.702 -18.079   8.600  0.00  0.00    +0.149 C 
BRANCH  48  51
ATOM     49  C   ARG A   1      25.594 -19.822   9.881  0.00  0.00    +0.238 C 
ATOM     50  O   ARG A   1      24.627 -19.940  10.548  0.00  0.00    -0.274 OA
ATOM     51  N   GLU A   2      25.720 -18.951   8.881  0.00  0.00    -0.297 N 
ATOM     52  H   GLU A   2      26.591 -18.933   8.314  0.00  0.00    +0.150 HD
BRANCH  49  53
ATOM     53  CA  ARG A   1      26.792 -20.764  10.145  0.00  0.00    +0.145 C 
BRANCH  53  54
ATOM     54  N   ARG A   1      27.233 -21.378   8.927  0.00  0.00    -0.238 NA
ATOM     55  H   ARG A   1      28.203 -21.236   8.581  0.00  0.00    +0.142 HD
ENDBRANCH  53  54
BRANCH  53  56
ATOM     56  CB  ARG A   1      27.953 -19.993  10.750  0.00  0.00    +0.030 C 
BRANCH  56  57
ATOM     57  CG  ARG A   1      27.637 -19.156  11.965  0.00  0.00    +0.045 C 
BRANCH  57  58
ATOM     58  CD  ARG A   1      28.901 -18.413  12.342  0.00  0.00    +0.174 C 
BRANCH  58  59
ATOM     59  NE  ARG A   1      28.790 -17.540  13.469  0.00  0.00    -0.265 N 
ATOM     60  CZ  ARG A   1      29.811 -16.965  14.039  0.00  0.00    +0.342 C 
ATOM     61  NH2 ARG A   1      29.635 -16.168  15.049  0.00  0.00    -0.292 N 
ATOM     62 HH21 ARG A   1      30.453 -15.712  15.500  0.00  0.00    +0.255 HD
ATOM     63 HH22 ARG A   1      28.676 -15.986  15.407  0.00  0.00    +0.255 HD
ATOM     64  NH1 ARG A   1      31.058 -17.149  13.652  0.00  0.00    -0.292 N 
ATOM     65 HH11 ARG A   1      31.833 -16.662  14.146  0.00  0.00    +0.255 HD
ATOM     66 HH12 ARG A   1      31.267 -17.781  12.853  0.00  0.00    +0.255 HD
ATOM     67  HE  ARG A   1      27.842 -17.354  13.855  0.00  0.00    +0.259 HD
ENDBRANCH  58  59
ENDBRANCH  57  58
ENDBRANCH  56  57
ENDBRANCH  53  56
ENDBRANCH  49  53
ENDBRANCH  48  51
BRANCH  48  68
ATOM     68  CB  GLU A   2      25.137 -16.940   7.710  0.00  0.00    +0.041 C 
BRANCH  68  69
ATOM     69  CG  GLU A   2      26.067 -15.988   8.453  0.00  0.00    +0.116 C 
BRANCH  69  70
ATOM     70  CD  GLU A   2      25.478 -15.330   9.637  0.00  0.00    +0.365 C 
ATOM     71  OE2 GLU A   2      25.385 -16.008  10.701  0.00  0.00    -0.246 OA
ATOM     72  OE1 GLU A   2      25.104 -14.112   9.521  0.00  0.00    -0.246 OA
ENDBRANCH  69  70
ENDBRANCH  68  69
ENDBRANCH  48  68
ENDBRANCH  44  48
ENDBRANCH  43  46
BRANCH  43  73
ATOM     73  CB  THR A   3      22.873 -21.499   5.673  0.00  0.00    +0.137 C 
ATOM     74  CG2 THR A   3      21.681 -22.388   5.249  0.00  0.00    +0.034 C 
BRANCH  73  75
ATOM     75  OG1 THR A   3      23.518 -20.956   4.533  0.00  0.00    -0.382 OA
ATOM     76  HG1 THR A   3      24.342 -20.486   4.814  0.00  0.00    +0.210 HD
ENDBRANCH  73  75
ENDBRANCH  43  73
ENDBRANCH  39  43
ENDBRANCH  38  40
BRANCH  38  77
ATOM     77  CB  ARG A   4      22.811 -22.782  10.744  0.00  0.00    +0.033 C 
BRANCH  77  78
ATOM     78  CG  ARG A   4      22.340 -23.430  11.994  0.00  0.00    +0.045 C 
BRANCH  78  79
ATOM     79  CD  ARG A   4      21.665 -24.725  11.666  0.00  0.00    +0.174 C 
BRANCH  79  80
ATOM     80  NE  ARG A   4      20.177 -24.614  11.614  0.00  0.00    -0.265 N 
ATOM     81  HE  ARG A   4      19.694 -24.052  12.344  0.00  0.00    +0.259 HD
ATOM     82  CZ  ARG A   4      19.443 -25.204  10.673  0.00  0.00    +0.342 C 
ATOM     83  NH2 ARG A   4      18.201 -25.081  10.683  0.00  0.00    -0.292 N 
ATOM     84 HH21 ARG A   4      17.740 -24.518  11.426  0.00  0.00    +0.255 HD
ATOM     85 HH22 ARG A   4      17.627 -25.542   9.948  0.00  0.00    +0.255 HD
ATOM     86  NH1 ARG A   4      19.967 -25.841   9.700  0.00  0.00    -0.292 N 
ATOM     87 HH11 ARG A   4      21.002 -25.913   9.622  0.00  0.00    +0.255 HD
ATOM     88 HH12 ARG A   4      19.360 -26.289   8.984  0.00  0.00    +0.255 HD
ENDBRANCH  79  80
ENDBRANCH  78  79
ENDBRANCH  77  78
ENDBRANCH  38  77
ENDBRANCH  34  38
ENDBRANCH  33  36
BRANCH  33  89
ATOM     89  CB  SER A   5      22.077 -17.821  11.975  0.00  0.00    +0.166 C 
BRANCH  89  90
ATOM     90  OG  SER A   5      21.572 -16.720  12.696  0.00  0.00    -0.380 OA
ATOM     91  H   SER A   5      22.283 -16.039  12.796  0.00  0.00    +0.211 HD
ENDBRANCH  89  90
ENDBRANCH  33  89
ENDBRANCH  29  33
ENDBRANCH  27  31
ENDBRANCH  23  27
ENDBRANCH  22  25
BRANCH  22  92
ATOM     92  CB  ARG A   7      17.653 -22.362   8.670  0.00  0.00    +0.033 C 
BRANCH  92  93
ATOM     93  CG  ARG A   7      17.803 -22.527   7.084  0.00  0.00    +0.045 C 
BRANCH  93  94
ATOM     94  CD  ARG A   7      18.236 -23.917   6.684  0.00  0.00    +0.174 C 
BRANCH  94  95
ATOM     95  NE  ARG A   7      18.298 -23.967   5.218  0.00  0.00    -0.265 N 
ATOM     96  HE  ARG A   7      17.657 -23.337   4.695  0.00  0.00    +0.259 HD
ATOM     97  CZ  ARG A   7      19.091 -24.736   4.508  0.00  0.00    +0.342 C 
ATOM     98  NH2 ARG A   7      19.880 -25.495   5.054  0.00  0.00    -0.292 N 
ATOM     99 HH21 ARG A   7      19.928 -25.536   6.092  0.00  0.00    +0.255 HD
ATOM    100 HH22 ARG A   7      20.503 -26.099   4.480  0.00  0.00    +0.255 HD
ATOM    101  NH1 ARG A   7      19.146 -24.629   3.224  0.00  0.00    -0.292 N 
ATOM    102 HH11 ARG A   7      18.557 -23.925   2.735  0.00  0.00    +0.255 HD
ATOM    103 HH12 ARG A   7      19.780 -25.246   2.677  0.00  0.00    +0.255 HD
ENDBRANCH  94  95
ENDBRANCH  93  94
ENDBRANCH  92  93
ENDBRANCH  22  92
ENDBRANCH  18  22
ENDBRANCH  17  19
BRANCH  17 104
ATOM    104  CB  ASP A   8      17.526 -21.383  13.767  0.00  0.00    +0.143 C 
BRANCH 104 105
ATOM    105  CG  ASP A   8      18.258 -22.749  13.773  0.00  0.00    +0.367 C 
ATOM    106  OD2 ASP A   8      19.370 -22.773  14.322  0.00  0.00    -0.246 OA
ATOM    107  OD1 ASP A   8      17.753 -23.838  13.234  0.00  0.00    -0.246 OA
ENDBRANCH 104 105
ENDBRANCH  17 104
ENDBRANCH  13  17
ENDBRANCH  12  15
BRANCH  12 108
ATOM    108  CB  THR A   9      15.682 -16.535  12.341  0.00  0.00    +0.137 C 
ATOM    109  CG2 THR A   9      14.946 -15.325  12.671  0.00  0.00    +0.034 C 
BRANCH 108 110
ATOM    110  OG1 THR A   9      16.920 -16.476  12.955  0.00  0.00    -0.382 OA
ATOM    111  HG1 THR A   9      17.461 -17.259  12.681  0.00  0.00    +0.210 HD
ENDBRANCH 108 110
ENDBRANCH  12 108
ENDBRANCH   8  12
ENDBRANCH   6  10
ENDBRANCH   2   6
ENDBRANCH   1   3
BRANCH   1 112
ATOM    112  C   GLN A  11      10.685 -20.684  13.409  0.00  0.00    +0.241 C 
ATOM    113  N   ILE A  12      11.486 -19.906  14.128  0.00  0.00    -0.297 N 
ATOM    114  H   ILE A  12      12.499 -19.864  13.898  0.00  0.00    +0.150 HD
ATOM    115  O   GLN A  11       9.533 -20.882  13.682  0.00  0.00    -0.273 OA
BRANCH 113 116
ATOM    116  CA  ILE A  12      10.979 -19.126  15.213  0.00  0.00    +0.149 C 
BRANCH 116 117
ATOM    117  C   ILE A  12       9.910 -18.234  14.703  0.00  0.00    +0.241 C 
ATOM    118  O   ILE A  12       8.845 -18.146  15.327  0.00  0.00    -0.273 OA
ATOM    119  N   PHE A  13      10.157 -17.537  13.603  0.00  0.00    -0.297 N 
ATOM    120  H   PHE A  13      11.085 -17.622  13.141  0.00  0.00    +0.150 HD
BRANCH 119 121
ATOM    121  CA  PHE A  13       9.184 -16.683  13.049  0.00  0.00    +0.153 C 
BRANCH 121 122
ATOM    122  C   PHE A  13       7.920 -17.394  12.576  0.00  0.00    +0.241 C 
ATOM    123  O   PHE A  13       6.847 -16.810  12.537  0.00  0.00    -0.273 OA
ATOM    124  N   ARG A  14       8.075 -18.618  12.150  0.00  0.00    -0.297 N 
ATOM    125  H   ARG A  14       9.020 -19.047  12.081  0.00  0.00    +0.150 HD
BRANCH 124 126
ATOM    126  CA  ARG A  14       6.885 -19.360  11.776  0.00  0.00    +0.149 C 
BRANCH 126 127
ATOM    127  C   ARG A  14       5.971 -19.481  12.998  0.00  0.00    +0.241 C 
ATOM    128  N   VAL A  15       6.536 -19.894  14.108  0.00  0.00    -0.297 N 
ATOM    129  H   VAL A  15       7.529 -20.202  14.097  0.00  0.00    +0.150 HD
ATOM    130  O   ARG A  14       4.749 -19.157  13.009  0.00  0.00    -0.273 OA
BRANCH 128 131
ATOM    131  CA  VAL A  15       5.766 -19.925  15.384  0.00  0.00    +0.149 C 
BRANCH 131 132
ATOM    132  C   VAL A  15       5.254 -18.565  15.771  0.00  0.00    +0.241 C 
ATOM    133  O   VAL A  15       4.164 -18.438  16.221  0.00  0.00    -0.273 OA
ATOM    134  N   ASN A  16       6.075 -17.548  15.598  0.00  0.00    -0.297 N 
ATOM    135  H   ASN A  16       7.033 -17.690  15.219  0.00  0.00    +0.150 HD
BRANCH 134 136
ATOM    136  CA  ASN A  16       5.610 -16.258  15.945  0.00  0.00    +0.158 C 
BRANCH 136 137
ATOM    137  C   ASN A  16       4.399 -15.788  15.141  0.00  0.00    +0.241 C 
ATOM    138  O   ASN A  16       3.452 -15.289  15.706  0.00  0.00    -0.273 OA
ATOM    139  N   LEU A  17       4.416 -15.956  13.818  0.00  0.00    -0.297 N 
ATOM    140  H   LEU A  17       5.282 -16.295  13.352  0.00  0.00    +0.150 HD
BRANCH 139 141
ATOM    141  CA  LEU A  17       3.229 -15.668  13.019  0.00  0.00    +0.149 C 
BRANCH 141 142
ATOM    142  C   LEU A  17       1.997 -16.389  13.516  0.00  0.00    +0.241 C 
ATOM    143  N   ARG A  18       2.136 -17.582  14.013  0.00  0.00    -0.297 N 
ATOM    144  H   ARG A  18       3.051 -18.076  14.003  0.00  0.00    +0.150 HD
ATOM    145  O   LEU A  17       0.916 -15.884  13.470  0.00  0.00    -0.273 OA
BRANCH 143 146
ATOM    146  CA  ARG A  18       0.931 -18.198  14.591  0.00  0.00    +0.149 C 
BRANCH 146 147
ATOM    147  C   ARG A  18       0.482 -17.618  15.910  0.00  0.00    +0.241 C 
ATOM    148  N   THR A  19       1.439 -17.214  16.742  0.00  0.00    -0.295 N 
ATOM    149  H   THR A  19       2.436 -17.345  16.478  0.00  0.00    +0.150 HD
ATOM    150  O   ARG A  18      -0.681 -17.597  16.181  0.00  0.00    -0.273 OA
BRANCH 148 151
ATOM    151  CA  THR A  19       1.114 -16.596  18.006  0.00  0.00    +0.176 C 
BRANCH 151 152
ATOM    152  C   THR A  19       0.526 -15.201  17.702  0.00  0.00    +0.243 C 
ATOM    153  O   THR A  19      -0.463 -14.787  18.292  0.00  0.00    -0.273 OA
ATOM    154  N   LEU A  20       1.131 -14.501  16.784  0.00  0.00    -0.298 N 
ATOM    155  H   LEU A  20       1.937 -14.897  16.260  0.00  0.00    +0.150 HD
BRANCH 154 156
ATOM    156  CA  LEU A  20       0.647 -13.129  16.501  0.00  0.00    +0.137 C 
BRANCH 156 157
ATOM    157  C   LEU A  20      -0.787 -13.124  16.092  0.00  0.00    +0.227 C 
ATOM    158  O   LEU A  20      -1.517 -12.266  16.461  0.00  0.00    -0.286 OA
ENDBRANCH 156 157
BRANCH 156 159
ATOM    159  CB  LEU A  20       1.498 -12.440  15.445  0.00  0.00    +0.028 C 
BRANCH 159 160
ATOM    160  CG  LEU A  20       2.862 -12.026  15.990  0.00  0.00    +0.002 C 
ATOM    161  CD2 LEU A  20       2.730 -10.821  16.883  0.00  0.00    +0.000 C 
ATOM    162  CD1 LEU A  20       3.756 -11.798  14.843  0.00  0.00    +0.000 C 
ENDBRANCH 159 160
ENDBRANCH 156 159
ENDBRANCH 154 156
ENDBRANCH 151 152
BRANCH 151 163
ATOM    163  CB  THR A  19       2.310 -16.473  18.949  0.00  0.00    +0.137 C 
ATOM    164  CG2 THR A  19       1.917 -15.857  20.283  0.00  0.00    +0.034 C 
BRANCH 163 165
ATOM    165  OG1 THR A  19       2.949 -17.730  19.106  0.00  0.00    -0.382 OA
ATOM    166  HG1 THR A  19       3.720 -17.633  19.719  0.00  0.00    +0.210 HD
ENDBRANCH 163 165
ENDBRANCH 151 163
ENDBRANCH 148 151
ENDBRANCH 146 147
BRANCH 146 167
ATOM    167  CB  ARG A  18       1.180 -19.652  14.853  0.00  0.00    +0.033 C 
BRANCH 167 168
ATOM    168  CG  ARG A  18       0.043 -20.421  15.293  0.00  0.00    +0.045 C 
BRANCH 168 169
ATOM    169  CD  ARG A  18       0.599 -21.895  15.438  0.00  0.00    +0.174 C 
BRANCH 169 170
ATOM    170  NE  ARG A  18       1.335 -22.066  16.663  0.00  0.00    -0.265 N 
ATOM    171  HE  ARG A  18       1.168 -21.379  17.426  0.00  0.00    +0.259 HD
ATOM    172  CZ  ARG A  18       2.194 -23.018  16.885  0.00  0.00    +0.342 C 
ATOM    173  NH2 ARG A  18       2.838 -23.057  18.024  0.00  0.00    -0.292 N 
ATOM    174 HH21 ARG A  18       2.662 -22.329  18.746  0.00  0.00    +0.255 HD
ATOM    175 HH22 ARG A  18       3.526 -23.815  18.207  0.00  0.00    +0.255 HD
ATOM    176  NH1 ARG A  18       2.442 -23.877  15.968  0.00  0.00    -0.292 N 
ATOM    177 HH11 ARG A  18       3.128 -24.639  16.141  0.00  0.00    +0.255 HD
ATOM    178 HH12 ARG A  18       1.958 -23.812  15.050  0.00  0.00    +0.255 HD
ENDBRANCH 169 170
ENDBRANCH 168 169
ENDBRANCH 167 168
ENDBRANCH 146 167
ENDBRANCH 143 146
ENDBRANCH 141 142
BRANCH 141 179
ATOM    179  CB  LEU A  17       3.436 -16.012  11.580  0.00  0.00    +0.029 C 
BRANCH 179 180
ATOM    180  CG  LEU A  17       4.402 -15.140  10.786  0.00  0.00    +0.002 C 
ATOM    181  CD2 LEU A  17       3.780 -13.636  10.403  0.00  0.00    +0.000 C 
ATOM    182  CD1 LEU A  17       4.795 -15.947   9.515  0.00  0.00    +0.000 C 
ENDBRANCH 179 180
ENDBRANCH 141 179
ENDBRANCH 139 141
ENDBRANCH 136 137
BRANCH 136 183
ATOM    183  CB  ASN A  16       6.724 -15.281  15.754  0.00  0.00    +0.114 C 
BRANCH 183 184
ATOM    184  CG  ASN A  16       7.763 -15.316  16.895  0.00  0.00    +0.222 C 
ATOM    185  OD1 ASN A  16       7.490 -15.667  18.039  0.00  0.00    -0.275 OA
ATOM    186  ND2 ASN A  16       8.956 -14.872  16.567  0.00  0.00    -0.329 N 
ATOM    187 HD21 ASN A  16       9.704 -14.810  17.287  0.00  0.00    +0.145 HD
ATOM    188 HD22 ASN A  16       9.152 -14.583  15.587  0.00  0.00    +0.145 HD
ENDBRANCH 183 184
ENDBRANCH 136 183
ENDBRANCH 134 136
ENDBRANCH 131 132
BRANCH 131 189
ATOM    189  CB  VAL A  15       6.632 -20.531  16.491  0.00  0.00    +0.027 C 
ATOM    190  CG2 VAL A  15       5.959 -20.493  17.822  0.00  0.00    +0.002 C 
ATOM    191  CG1 VAL A  15       6.956 -21.883  16.016  0.00  0.00    +0.002 C 
ENDBRANCH 131 189
ENDBRANCH 128 131
ENDBRANCH 126 127
BRANCH 126 192
ATOM    192  CB  ARG A  14       7.301 -20.735  11.255  0.00  0.00    +0.033 C 
BRANCH 192 193
ATOM    193  CG  ARG A  14       6.185 -21.594  10.593  0.00  0.00    +0.045 C 
BRANCH 193 194
ATOM    194  CD  ARG A  14       6.608 -23.028  10.324  0.00  0.00    +0.174 C 
BRANCH 194 195
ATOM    195  NE  ARG A  14       6.895 -23.759  11.650  0.00  0.00    -0.265 N 
ATOM    196  CZ  ARG A  14       5.999 -23.980  12.650  0.00  0.00    +0.342 C 
ATOM    197  NH2 ARG A  14       6.348 -24.596  13.696  0.00  0.00    -0.292 N 
ATOM    198 HH21 ARG A  14       5.658 -24.762  14.457  0.00  0.00    +0.255 HD
ATOM    199 HH22 ARG A  14       7.325 -24.938  13.797  0.00  0.00    +0.255 HD
ATOM    200  NH1 ARG A  14       4.733 -23.615  12.590  0.00  0.00    -0.292 N 
ATOM    201 HH11 ARG A  14       4.096 -23.812  13.388  0.00  0.00    +0.255 HD
ATOM    202 HH12 ARG A  14       4.371 -23.130  11.744  0.00  0.00    +0.255 HD
ATOM    203  HE  ARG A  14       7.861 -24.116  11.794  0.00  0.00    +0.259 HD
ENDBRANCH 194 195
ENDBRANCH 193 194
ENDBRANCH 192 193
ENDBRANCH 126 192
ENDBRANCH 124 126
ENDBRANCH 121 122
BRANCH 121 204
ATOM    204  CB  PHE A  13       9.761 -15.882  11.905  0.00  0.00    +0.055 C 
BRANCH 204 205
ATOM    205  CG  PHE A  13      10.410 -14.680  12.316  0.00  0.00    -0.020 A 
ATOM    206  CD2 PHE A  13      11.087 -14.618  13.473  0.00  0.00    -0.004 A 
ATOM    207  CE2 PHE A  13      11.796 -13.396  13.849  0.00  0.00    -0.000 A 
ATOM    208  CZ  PHE A  13      11.776 -12.378  13.091  0.00  0.00    -0.000 A 
ATOM    209  CE1 PHE A  13      11.121 -12.433  11.940  0.00  0.00    -0.000 A 
ATOM    210  CD1 PHE A  13      10.431 -13.582  11.548  0.00  0.00    -0.004 A 
ENDBRANCH 204 205
ENDBRANCH 121 204
ENDBRANCH 119 121
ENDBRANCH 116 117
BRANCH 116 211
ATOM    211  CB  ILE A  12      12.053 -18.208  15.879  0.00  0.00    +0.027 C 
ATOM    212  CG2 ILE A  12      11.463 -17.185  16.928  0.00  0.00    +0.002 C 
BRANCH 211 213
ATOM    213  CG1 ILE A  12      13.201 -19.016  16.531  0.00  0.00    +0.002 C 
ATOM    214  CD1 ILE A  12      12.849 -19.763  17.728  0.00  0.00    +0.000 C 
ENDBRANCH 211 213
ENDBRANCH 116 211
ENDBRANCH 113 116
ENDBRANCH   1 112
BRANCH   1 215
ATOM    215  CB  GLN A  11      12.005 -22.628  12.871  0.00  0.00    +0.039 C 
BRANCH 215 216
ATOM    216  CG  GLN A  11      12.216 -23.772  11.882  0.00  0.00    +0.087 C 
BRANCH 216 217
ATOM    217  CD  GLN A  11      11.023 -24.645  11.594  0.00  0.00    +0.219 C 
ATOM    218  NE2 GLN A  11       9.813 -24.426  12.249  0.00  0.00    -0.329 N 
ATOM    219 HE21 GLN A  11       9.732 -23.661  12.949  0.00  0.00    +0.145 HD
ATOM    220 HE22 GLN A  11       8.991 -25.027  12.038  0.00  0.00    +0.145 HD
ATOM    221  OE1 GLN A  11      11.178 -25.509  10.779  0.00  0.00    -0.275 OA
ENDBRANCH 216 217
ENDBRANCH 215 216
ENDBRANCH   1 215
TORSDOF 87
REMARK  Name = ../refined-set-2016/3bzf/3bzf_pocket.pdb
REMARK  356 active torsions:
REMARK  status: ('A' for Active; 'I' for Inactive)
REMARK    1  A    between atoms: _1  and  _3
REMARK    2  A    between atoms: _3  and  _4
REMARK    3  A    between atoms: _3  and  _6
REMARK    4  A    between atoms: _6  and  _7
REMARK    5  A    between atoms: _10  and  _12
REMARK    6  A    between atoms: _12  and  _13
REMARK    7  A    between atoms: _12  and  _15
REMARK    8  A    between atoms: _15  and  _16
REMARK    9  A    between atoms: _16  and  _17
REMARK   10  A    between atoms: _17  and  _18
REMARK   11  A    between atoms: _18  and  _19
REMARK   12  A    between atoms: _23  and  _25
REMARK   13  A    between atoms: _25  and  _26
REMARK   14  A    between atoms: _25  and  _28
REMARK   15  A    between atoms: _28  and  _29
REMARK   16  A    between atoms: _34  and  _35
REMARK   17  A    between atoms: _37  and  _39
REMARK   18  A    between atoms: _39  and  _40
REMARK   19  A    between atoms: _39  and  _42
REMARK   20  A    between atoms: _42  and  _43
REMARK   21  A    between atoms: _49  and  _51
REMARK   22  A    between atoms: _51  and  _52
REMARK   23  A    between atoms: _51  and  _54
REMARK   24  A    between atoms: _54  and  _55
REMARK   25  A    between atoms: _60  and  _62
REMARK   26  A    between atoms: _62  and  _63
REMARK   27  A    between atoms: _62  and  _65
REMARK   28  A    between atoms: _65  and  _66
REMARK   29  A    between atoms: _72  and  _74
REMARK   30  A    between atoms: _74  and  _75
REMARK   31  A    between atoms: _74  and  _77
REMARK   32  A    between atoms: _77  and  _78
REMARK   33  A    between atoms: _81  and  _83
REMARK   34  A    between atoms: _83  and  _84
REMARK   35  A    between atoms: _83  and  _86
REMARK   36  A    between atoms: _86  and  _87
REMARK   37  A    between atoms: _89  and  _91
REMARK   38  A    between atoms: _91  and  _92
REMARK   39  A    between atoms: _91  and  _94
REMARK   40  A    between atoms: _97  and  _99
REMARK   41  A    between atoms: _99  and  _100
REMARK   42  A    between atoms: _102  and  _104
REMARK   43  A    between atoms: _104  and  _105
REMARK   44  A    between atoms: _104  and  _107
REMARK   45  A    between atoms: _107  and  _108
REMARK   46  A    between atoms: _114  and  _116
REMARK   47  A    between atoms: _116  and  _117
REMARK   48  A    between atoms: _116  and  _119
REMARK   49  A    between atoms: _122  and  _124
REMARK   50  A    between atoms: _124  and  _125
REMARK   51  A    between atoms: _124  and  _127
REMARK   52  A    between atoms: _127  and  _128
REMARK   53  A    between atoms: _128  and  _129
REMARK   54  A    between atoms: _129  and  _130
REMARK   55  A    between atoms: _139  and  _141
REMARK   56  A    between atoms: _141  and  _142
REMARK   57  A    between atoms: _141  and  _144
REMARK   58  A    between atoms: _144  and  _145
REMARK   59  A    between atoms: _151  and  _153
REMARK   60  A    between atoms: _153  and  _154
REMARK   61  A    between atoms: _153  and  _156
REMARK   62  A    between atoms: _156  and  _157
REMARK   63  A    between atoms: _157  and  _158
REMARK   64  A    between atoms: _160  and  _162
REMARK   65  A    between atoms: _162  and  _163
REMARK   66  A    between atoms: _162  and  _165
REMARK   67  A    between atoms: _165  and  _166
REMARK   68  A    between atoms: _171  and  _172
REMARK   69  A    between atoms: _174  and  _176
REMARK   70  A    between atoms: _176  and  _177
REMARK   71  A    between atoms: _176  and  _179
REMARK   72  A    between atoms: _179  and  _180
REMARK   73  A    between atoms: _180  and  _181
REMARK   74  A    between atoms: _181  and  _182
REMARK   75  A    between atoms: _191  and  _193
REMARK   76  A    between atoms: _193  and  _194
REMARK   77  A    between atoms: _193  and  _196
REMARK   78  A    between atoms: _196  and  _197
REMARK   79  A    between atoms: _197  and  _198
REMARK   80  A    between atoms: _201  and  _203
REMARK   81  A    between atoms: _203  and  _204
REMARK   82  A    between atoms: _203  and  _206
REMARK   83  A    between atoms: _206  and  _207
REMARK   84  A    between atoms: _210  and  _212
REMARK   85  A    between atoms: _212  and  _213
REMARK   86  A    between atoms: _212  and  _215
REMARK   87  A    between atoms: _215  and  _216
REMARK   88  A    between atoms: _216  and  _217
REMARK   89  A    between atoms: _217  and  _218
REMARK   90  A    between atoms: _227  and  _229
REMARK   91  A    between atoms: _229  and  _230
REMARK   92  A    between atoms: _229  and  _232
REMARK   93  A    between atoms: _232  and  _233
REMARK   94  A    between atoms: _235  and  _237
REMARK   95  A    between atoms: _237  and  _238
REMARK   96  A    between atoms: _241  and  _243
REMARK   97  A    between atoms: _243  and  _244
REMARK   98  A    between atoms: _243  and  _246
REMARK   99  A    between atoms: _246  and  _247
REMARK  100  A    between atoms: _247  and  _248
REMARK  101  A    between atoms: _248  and  _249
REMARK  102  A    between atoms: _258  and  _260
REMARK  103  A    between atoms: _260  and  _261
REMARK  104  A    between atoms: _260  and  _263
REMARK  105  A    between atoms: _263  and  _264
REMARK  106  A    between atoms: _267  and  _269
REMARK  107  A    between atoms: _269  and  _270
REMARK  108  A    between atoms: _269  and  _272
REMARK  109  A    between atoms: _272  and  _273
REMARK  110  A    between atoms: _276  and  _278
REMARK  111  A    between atoms: _278  and  _279
REMARK  112  A    between atoms: _282  and  _284
REMARK  113  A    between atoms: _284  and  _285
REMARK  114  A    between atoms: _284  and  _287
REMARK  115  A    between atoms: _287  and  _288
REMARK  116  A    between atoms: _288  and  _289
REMARK  117  A    between atoms: _294  and  _296
REMARK  118  A    between atoms: _296  and  _297
REMARK  119  A    between atoms: _296  and  _299
REMARK  120  A    between atoms: _299  and  _300
REMARK  121  A    between atoms: _303  and  _305
REMARK  122  A    between atoms: _305  and  _306
REMARK  123  A    between atoms: _305  and  _308
REMARK  124  A    between atoms: _308  and  _309
REMARK  125  A    between atoms: _315  and  _317
REMARK  126  A    between atoms: _317  and  _318
REMARK  127  A    between atoms: _317  and  _320
REMARK  128  A    between atoms: _320  and  _321
REMARK  129  A    between atoms: _321  and  _322
REMARK  130  A    between atoms: _322  and  _323
REMARK  131  A    between atoms: _332  and  _334
REMARK  132  A    between atoms: _334  and  _335
REMARK  133  A    between atoms: _334  and  _337
REMARK  134  A    between atoms: _340  and  _342
REMARK  135  A    between atoms: _342  and  _343
REMARK  136  A    between atoms: _342  and  _345
REMARK  137  A    between atoms: _345  and  _346
REMARK  138  A    between atoms: _351  and  _353
REMARK  139  A    between atoms: _353  and  _354
REMARK  140  A    between atoms: _353  and  _356
REMARK  141  A    between atoms: _356  and  _357
REMARK  142  A    between atoms: _360  and  _362
REMARK  143  A    between atoms: _362  and  _363
REMARK  144  A    between atoms: _362  and  _365
REMARK  145  A    between atoms: _365  and  _366
REMARK  146  A    between atoms: _366  and  _367
REMARK  147  A    between atoms: _367  and  _368
REMARK  148  A    between atoms: _377  and  _379
REMARK  149  A    between atoms: _379  and  _380
REMARK  150  A    between atoms: _379  and  _382
REMARK  151  A    between atoms: _382  and  _383
REMARK  152  A    between atoms: _386  and  _388
REMARK  153  A    between atoms: _388  and  _389
REMARK  154  A    between atoms: _388  and  _391
REMARK  155  A    between atoms: _391  and  _392
REMARK  156  A    between atoms: _395  and  _397
REMARK  157  A    between atoms: _397  and  _398
REMARK  158  A    between atoms: _397  and  _400
REMARK  159  A    between atoms: _400  and  _401
REMARK  160  A    between atoms: _406  and  _407
REMARK  161  A    between atoms: _409  and  _411
REMARK  162  A    between atoms: _411  and  _412
REMARK  163  A    between atoms: _411  and  _414
REMARK  164  A    between atoms: _414  and  _415
REMARK  165  A    between atoms: _420  and  _421
REMARK  166  A    between atoms: _423  and  _425
REMARK  167  A    between atoms: _425  and  _426
REMARK  168  A    between atoms: _425  and  _428
REMARK  169  A    between atoms: _428  and  _429
REMARK  170  A    between atoms: _432  and  _434
REMARK  171  A    between atoms: _434  and  _435
REMARK  172  A    between atoms: _434  and  _437
REMARK  173  A    between atoms: _437  and  _438
REMARK  174  A    between atoms: _438  and  _439
REMARK  175  A    between atoms: _444  and  _446
REMARK  176  A    between atoms: _446  and  _447
REMARK  177  A    between atoms: _446  and  _449
REMARK  178  A    between atoms: _449  and  _450
REMARK  179  A    between atoms: _460  and  _462
REMARK  180  A    between atoms: _462  and  _463
REMARK  181  A    between atoms: _462  and  _465
REMARK  182  A    between atoms: _465  and  _466
REMARK  183  A    between atoms: _466  and  _467
REMARK  184  A    between atoms: _469  and  _471
REMARK  185  A    between atoms: _471  and  _472
REMARK  186  A    between atoms: _471  and  _474
REMARK  187  A    between atoms: _474  and  _475
REMARK  188  A    between atoms: _480  and  _482
REMARK  189  A    between atoms: _482  and  _483
REMARK  190  A    between atoms: _485  and  _487
REMARK  191  A    between atoms: _487  and  _488
REMARK  192  A    between atoms: _487  and  _490
REMARK  193  A    between atoms: _490  and  _491
REMARK  194  A    between atoms: _491  and  _814
REMARK  195  A    between atoms: _492  and  _494
REMARK  196  A    between atoms: _494  and  _495
REMARK  197  A    between atoms: _494  and  _497
REMARK  198  A    between atoms: _497  and  _498
REMARK  199  A    between atoms: _498  and  _499
REMARK  200  A    between atoms: _502  and  _504
REMARK  201  A    between atoms: _504  and  _505
REMARK  202  A    between atoms: _504  and  _507
REMARK  203  A    between atoms: _507  and  _508
REMARK  204  A    between atoms: _508  and  _509
REMARK  205  A    between atoms: _514  and  _516
REMARK  206  A    between atoms: _516  and  _517
REMARK  207  A    between atoms: _516  and  _519
REMARK  208  A    between atoms: _519  and  _520
REMARK  209  A    between atoms: _526  and  _528
REMARK  210  A    between atoms: _528  and  _529
REMARK  211  A    between atoms: _532  and  _534
REMARK  212  A    between atoms: _534  and  _535
REMARK  213  A    between atoms: _534  and  _537
REMARK  214  A    between atoms: _537  and  _538
REMARK  215  A    between atoms: _543  and  _544
REMARK  216  A    between atoms: _546  and  _548
REMARK  217  A    between atoms: _548  and  _549
REMARK  218  A    between atoms: _548  and  _551
REMARK  219  A    between atoms: _551  and  _552
REMARK  220  A    between atoms: _557  and  _558
REMARK  221  A    between atoms: _560  and  _562
REMARK  222  A    between atoms: _562  and  _563
REMARK  223  A    between atoms: _562  and  _565
REMARK  224  A    between atoms: _565  and  _566
REMARK  225  A    between atoms: _569  and  _571
REMARK  226  A    between atoms: _571  and  _572
REMARK  227  A    between atoms: _571  and  _574
REMARK  228  A    between atoms: _574  and  _575
REMARK  229  A    between atoms: _578  and  _580
REMARK  230  A    between atoms: _580  and  _581
REMARK  231  A    between atoms: _580  and  _583
REMARK  232  A    between atoms: _583  and  _584
REMARK  233  A    between atoms: _587  and  _589
REMARK  234  A    between atoms: _589  and  _590
REMARK  235  A    between atoms: _589  and  _592
REMARK  236  A    between atoms: _592  and  _593
REMARK  237  A    between atoms: _603  and  _605
REMARK  238  A    between atoms: _605  and  _606
REMARK  239  A    between atoms: _605  and  _608
REMARK  240  A    between atoms: _608  and  _609
REMARK  241  A    between atoms: _612  and  _614
REMARK  242  A    between atoms: _614  and  _615
REMARK  243  A    between atoms: _618  and  _620
REMARK  244  A    between atoms: _620  and  _621
REMARK  245  A    between atoms: _624  and  _626
REMARK  246  A    between atoms: _626  and  _627
REMARK  247  A    between atoms: _626  and  _629
REMARK  248  A    between atoms: _629  and  _630
REMARK  249  A    between atoms: _630  and  _631
REMARK  250  A    between atoms: _636  and  _638
REMARK  251  A    between atoms: _638  and  _639
REMARK  252  A    between atoms: _638  and  _641
REMARK  253  A    between atoms: _641  and  _642
REMARK  254  A    between atoms: _645  and  _647
REMARK  255  A    between atoms: _647  and  _648
REMARK  256  A    between atoms: _647  and  _650
REMARK  257  A    between atoms: _650  and  _651
REMARK  258  A    between atoms: _653  and  _655
REMARK  259  A    between atoms: _655  and  _656
REMARK  260  A    between atoms: _655  and  _658
REMARK  261  A    between atoms: _658  and  _659
REMARK  262  A    between atoms: _659  and  _660
REMARK  263  A    between atoms: _663  and  _665
REMARK  264  A    between atoms: _665  and  _666
REMARK  265  A    between atoms: _665  and  _668
REMARK  266  A    between atoms: _668  and  _669
REMARK  267  A    between atoms: _669  and  _670
REMARK  268  A    between atoms: _675  and  _677
REMARK  269  A    between atoms: _677  and  _678
REMARK  270  A    between atoms: _677  and  _680
REMARK  271  A    between atoms: _680  and  _681
REMARK  272  A    between atoms: _681  and  _682
REMARK  273  A    between atoms: _682  and  _683
REMARK  274  A    between atoms: _683  and  _684
REMARK  275  A    between atoms: _688  and  _690
REMARK  276  A    between atoms: _690  and  _691
REMARK  277  A    between atoms: _690  and  _693
REMARK  278  A    between atoms: _693  and  _694
REMARK  279  A    between atoms: _696  and  _698
REMARK  280  A    between atoms: _698  and  _699
REMARK  281  A    between atoms: _698  and  _701
REMARK  282  A    between atoms: _701  and  _702
REMARK  283  A    between atoms: _707  and  _709
REMARK  284  A    between atoms: _709  and  _710
REMARK  285  A    between atoms: _713  and  _715
REMARK  286  A    between atoms: _715  and  _716
REMARK  287  A    between atoms: _715  and  _718
REMARK  288  A    between atoms: _718  and  _719
REMARK  289  A    between atoms: _721  and  _723
REMARK  290  A    between atoms: _723  and  _724
REMARK  291  A    between atoms: _723  and  _726
REMARK  292  A    between atoms: _726  and  _727
REMARK  293  A    between atoms: _727  and  _728
REMARK  294  A    between atoms: _731  and  _733
REMARK  295  A    between atoms: _733  and  _734
REMARK  296  A    between atoms: _737  and  _739
REMARK  297  A    between atoms: _739  and  _740
REMARK  298  A    between atoms: _739  and  _742
REMARK  299  A    between atoms: _742  and  _743
REMARK  300  A    between atoms: _743  and  _744
REMARK  301  A    between atoms: _747  and  _749
REMARK  302  A    between atoms: _749  and  _750
REMARK  303  A    between atoms: _749  and  _752
REMARK  304  A    between atoms: _752  and  _753
REMARK  305  A    between atoms: _758  and  _760
REMARK  306  A    between atoms: _760  and  _761
REMARK  307  A    between atoms: _760  and  _763
REMARK  308  A    between atoms: _763  and  _764
REMARK  309  A    between atoms: _764  and  _765
REMARK  310  A    between atoms: _770  and  _772
REMARK  311  A    between atoms: _772  and  _773
REMARK  312  A    between atoms: _776  and  _778
REMARK  313  A    between atoms: _778  and  _779
REMARK  314  A    between atoms: _778  and  _781
REMARK  315  A    between atoms: _781  and  _782
REMARK  316  A    between atoms: _787  and  _788
REMARK  317  A    between atoms: _790  and  _792
REMARK  318  A    between atoms: _792  and  _793
REMARK  319  A    between atoms: _792  and  _795
REMARK  320  A    between atoms: _795  and  _796
REMARK  321  A    between atoms: _799  and  _801
REMARK  322  A    between atoms: _801  and  _802
REMARK  323  A    between atoms: _801  and  _804
REMARK  324  A    between atoms: _804  and  _805
REMARK  325  A    between atoms: _808  and  _810
REMARK  326  A    between atoms: _810  and  _811
REMARK  327  A    between atoms: _810  and  _813
REMARK  328  A    between atoms: _813  and  _814
REMARK  329  A    between atoms: _815  and  _817
REMARK  330  A    between atoms: _817  and  _818
REMARK  331  A    between atoms: _817  and  _820
REMARK  332  A    between atoms: _823  and  _825
REMARK  333  A    between atoms: _825  and  _826
REMARK  334  A    between atoms: _825  and  _828
REMARK  335  A    between atoms: _828  and  _829
REMARK  336  A    between atoms: _829  and  _830
REMARK  337  A    between atoms: _833  and  _835
REMARK  338  A    between atoms: _835  and  _836
REMARK  339  A    between atoms: _835  and  _838
REMARK  340  A    between atoms: _838  and  _839
REMARK  341  A    between atoms: _849  and  _851
REMARK  342  A    between atoms: _851  and  _852
REMARK  343  A    between atoms: _851  and  _854
REMARK  344  A    between atoms: _854  and  _855
REMARK  345  A    between atoms: _858  and  _860
REMARK  346  A    between atoms: _860  and  _861
REMARK  347  A    between atoms: _860  and  _863
REMARK  348  A    between atoms: _863  and  _864
REMARK  349  A    between atoms: _864  and  _865
REMARK  350  A    between atoms: _865  and  _866
REMARK  351  A    between atoms: _866  and  _867
REMARK  352  A    between atoms: _871  and  _873
REMARK  353  A    between atoms: _873  and  _874
REMARK  354  A    between atoms: _873  and  _876
REMARK  355  A    between atoms: _876  and  _877
REMARK  356  A    between atoms: _882  and  _883
REMARK                            x       y       z     vdW  Elec       q    Type
REMARK                         _______ _______ _______ _____ _____    ______ ____
ROOT
ATOM      1  C   TYR A   1      -4.257 -10.993  19.185  0.00  0.00    +0.238 C 
ATOM      2  O   TYR A   1      -4.981 -10.253  19.797  0.00  0.00    -0.274 OA
ATOM      3  N   TYR A   2      -4.245 -11.084  17.846  0.00  0.00    -0.302 N 
ATOM      4  H   TYR A   2      -3.498 -11.660  17.407  0.00  0.00    +0.150 HD
ENDROOT
BRANCH   1   5
ATOM      5  CA  TYR A   1      -3.252 -11.849  19.932  0.00  0.00    +0.149 C 
BRANCH   5   6
ATOM      6  N   TYR A   1      -3.079 -13.155  19.245  0.00  0.00    -0.238 NA
ATOM      7  H   TYR A   1      -2.149 -13.455  18.888  0.00  0.00    +0.142 HD
ENDBRANCH   5   6
BRANCH   5   8
ATOM      8  CB  TYR A   1      -1.863 -11.125  20.011  0.00  0.00    +0.053 C 
BRANCH   8   9
ATOM      9  CG  TYR A   1      -0.736 -11.860  20.788  0.00  0.00    -0.020 A 
ATOM     10  CD2 TYR A   1      -1.051 -12.630  21.925  0.00  0.00    -0.001 A 
ATOM     11  CE2 TYR A   1      -0.074 -13.311  22.547  0.00  0.00    +0.036 A 
ATOM     12  CZ  TYR A   1       1.271 -13.264  22.082  0.00  0.00    +0.134 A 
ATOM     13  CE1 TYR A   1       1.576 -12.502  20.992  0.00  0.00    +0.036 A 
ATOM     14  CD1 TYR A   1       0.567 -11.813  20.340  0.00  0.00    -0.001 A 
BRANCH  12  15
ATOM     15  OH  TYR A   1       2.192 -13.917  22.768  0.00  0.00    -0.506 OA
ATOM     16  HH  TYR A   1       3.073 -13.797  22.333  0.00  0.00    +0.292 HD
ENDBRANCH  12  15
ENDBRANCH   8   9
ENDBRANCH   5   8
ENDBRANCH   1   5
BRANCH   3  17
ATOM     17  CA  TYR A   2      -5.173 -10.454  16.993  0.00  0.00    +0.109 C 
BRANCH  17  18
ATOM     18  C   TYR A   2      -6.086 -11.597  16.787  0.00  0.00    +0.202 C 
ATOM     19  O   TYR A   2      -5.671 -12.839  16.987  0.00  0.00    -0.219 OA
ENDBRANCH  17  18
BRANCH  17  20
ATOM     20  CB  TYR A   2      -4.502 -10.001  15.746  0.00  0.00    +0.049 C 
BRANCH  20  21
ATOM     21  CG  TYR A   2      -3.432  -8.955  16.049  0.00  0.00    -0.020 A 
ATOM     22  CD2 TYR A   2      -3.781  -7.639  16.312  0.00  0.00    -0.001 A 
ATOM     23  CE2 TYR A   2      -2.821  -6.691  16.663  0.00  0.00    +0.036 A 
ATOM     24  CZ  TYR A   2      -1.489  -7.040  16.840  0.00  0.00    +0.134 A 
ATOM     25  CE1 TYR A   2      -1.106  -8.355  16.652  0.00  0.00    +0.036 A 
ATOM     26  CD1 TYR A   2      -2.053  -9.296  16.256  0.00  0.00    -0.001 A 
BRANCH  24  27
ATOM     27  OH  TYR A   2      -0.621  -6.050  17.274  0.00  0.00    -0.506 OA
ATOM     28  HH  TYR A   2       0.291  -6.426  17.359  0.00  0.00    +0.292 HD
ENDBRANCH  24  27
ENDBRANCH  20  21
ENDBRANCH  17  20
ENDBRANCH   3  17
TORSDOF 10
REMARK  Name = ../refined-set-2016/3bzf/3bzf_pocket.pdb
REMARK  356 active torsions:
REMARK  status: ('A' for Active; 'I' for Inactive)
REMARK    1  A    between atoms: _1  and  _3
REMARK    2  A    between atoms: _3  and  _4
REMARK    3  A    between atoms: _3  and  _6
REMARK    4  A    between atoms: _6  and  _7
REMARK    5  A    between atoms: _10  and  _12
REMARK    6  A    between atoms: _12  and  _13
REMARK    7  A    between atoms: _12  and  _15
REMARK    8  A    between atoms: _15  and  _16
REMARK    9  A    between atoms: _16  and  _17
REMARK   10  A    between atoms: _17  and  _18
REMARK   11  A    between atoms: _18  and  _19
REMARK   12  A    between atoms: _23  and  _25
REMARK   13  A    between atoms: _25  and  _26
REMARK   14  A    between atoms: _25  and  _28
REMARK   15  A    between atoms: _28  and  _29
REMARK   16  A    between atoms: _34  and  _35
REMARK   17  A    between atoms: _37  and  _39
REMARK   18  A    between atoms: _39  and  _40
REMARK   19  A    between atoms: _39  and  _42
REMARK   20  A    between atoms: _42  and  _43
REMARK   21  A    between atoms: _49  and  _51
REMARK   22  A    between atoms: _51  and  _52
REMARK   23  A    between atoms: _51  and  _54
REMARK   24  A    between atoms: _54  and  _55
REMARK   25  A    between atoms: _60  and  _62
REMARK   26  A    between atoms: _62  and  _63
REMARK   27  A    between atoms: _62  and  _65
REMARK   28  A    between atoms: _65  and  _66
REMARK   29  A    between atoms: _72  and  _74
REMARK   30  A    between atoms: _74  and  _75
REMARK   31  A    between atoms: _74  and  _77
REMARK   32  A    between atoms: _77  and  _78
REMARK   33  A    between atoms: _81  and  _83
REMARK   34  A    between atoms: _83  and  _84
REMARK   35  A    between atoms: _83  and  _86
REMARK   36  A    between atoms: _86  and  _87
REMARK   37  A    between atoms: _89  and  _91
REMARK   38  A    between atoms: _91  and  _92
REMARK   39  A    between atoms: _91  and  _94
REMARK   40  A    between atoms: _97  and  _99
REMARK   41  A    between atoms: _99  and  _100
REMARK   42  A    between atoms: _102  and  _104
REMARK   43  A    between atoms: _104  and  _105
REMARK   44  A    between atoms: _104  and  _107
REMARK   45  A    between atoms: _107  and  _108
REMARK   46  A    between atoms: _114  and  _116
REMARK   47  A    between atoms: _116  and  _117
REMARK   48  A    between atoms: _116  and  _119
REMARK   49  A    between atoms: _122  and  _124
REMARK   50  A    between atoms: _124  and  _125
REMARK   51  A    between atoms: _124  and  _127
REMARK   52  A    between atoms: _127  and  _128
REMARK   53  A    between atoms: _128  and  _129
REMARK   54  A    between atoms: _129  and  _130
REMARK   55  A    between atoms: _139  and  _141
REMARK   56  A    between atoms: _141  and  _142
REMARK   57  A    between atoms: _141  and  _144
REMARK   58  A    between atoms: _144  and  _145
REMARK   59  A    between atoms: _151  and  _153
REMARK   60  A    between atoms: _153  and  _154
REMARK   61  A    between atoms: _153  and  _156
REMARK   62  A    between atoms: _156  and  _157
REMARK   63  A    between atoms: _157  and  _158
REMARK   64  A    between atoms: _160  and  _162
REMARK   65  A    between atoms: _162  and  _163
REMARK   66  A    between atoms: _162  and  _165
REMARK   67  A    between atoms: _165  and  _166
REMARK   68  A    between atoms: _171  and  _172
REMARK   69  A    between atoms: _174  and  _176
REMARK   70  A    between atoms: _176  and  _177
REMARK   71  A    between atoms: _176  and  _179
REMARK   72  A    between atoms: _179  and  _180
REMARK   73  A    between atoms: _180  and  _181
REMARK   74  A    between atoms: _181  and  _182
REMARK   75  A    between atoms: _191  and  _193
REMARK   76  A    between atoms: _193  and  _194
REMARK   77  A    between atoms: _193  and  _196
REMARK   78  A    between atoms: _196  and  _197
REMARK   79  A    between atoms: _197  and  _198
REMARK   80  A    between atoms: _201  and  _203
REMARK   81  A    between atoms: _203  and  _204
REMARK   82  A    between atoms: _203  and  _206
REMARK   83  A    between atoms: _206  and  _207
REMARK   84  A    between atoms: _210  and  _212
REMARK   85  A    between atoms: _212  and  _213
REMARK   86  A    between atoms: _212  and  _215
REMARK   87  A    between atoms: _215  and  _216
REMARK   88  A    between atoms: _216  and  _217
REMARK   89  A    between atoms: _217  and  _218
REMARK   90  A    between atoms: _227  and  _229
REMARK   91  A    between atoms: _229  and  _230
REMARK   92  A    between atoms: _229  and  _232
REMARK   93  A    between atoms: _232  and  _233
REMARK   94  A    between atoms: _235  and  _237
REMARK   95  A    between atoms: _237  and  _238
REMARK   96  A    between atoms: _241  and  _243
REMARK   97  A    between atoms: _243  and  _244
REMARK   98  A    between atoms: _243  and  _246
REMARK   99  A    between atoms: _246  and  _247
REMARK  100  A    between atoms: _247  and  _248
REMARK  101  A    between atoms: _248  and  _249
REMARK  102  A    between atoms: _258  and  _260
REMARK  103  A    between atoms: _260  and  _261
REMARK  104  A    between atoms: _260  and  _263
REMARK  105  A    between atoms: _263  and  _264
REMARK  106  A    between atoms: _267  and  _269
REMARK  107  A    between atoms: _269  and  _270
REMARK  108  A    between atoms: _269  and  _272
REMARK  109  A    between atoms: _272  and  _273
REMARK  110  A    between atoms: _276  and  _278
REMARK  111  A    between atoms: _278  and  _279
REMARK  112  A    between atoms: _282  and  _284
REMARK  113  A    between atoms: _284  and  _285
REMARK  114  A    between atoms: _284  and  _287
REMARK  115  A    between atoms: _287  and  _288
REMARK  116  A    between atoms: _288  and  _289
REMARK  117  A    between atoms: _294  and  _296
REMARK  118  A    between atoms: _296  and  _297
REMARK  119  A    between atoms: _296  and  _299
REMARK  120  A    between atoms: _299  and  _300
REMARK  121  A    between atoms: _303  and  _305
REMARK  122  A    between atoms: _305  and  _306
REMARK  123  A    between atoms: _305  and  _308
REMARK  124  A    between atoms: _308  and  _309
REMARK  125  A    between atoms: _315  and  _317
REMARK  126  A    between atoms: _317  and  _318
REMARK  127  A    between atoms: _317  and  _320
REMARK  128  A    between atoms: _320  and  _321
REMARK  129  A    between atoms: _321  and  _322
REMARK  130  A    between atoms: _322  and  _323
REMARK  131  A    between atoms: _332  and  _334
REMARK  132  A    between atoms: _334  and  _335
REMARK  133  A    between atoms: _334  and  _337
REMARK  134  A    between atoms: _340  and  _342
REMARK  135  A    between atoms: _342  and  _343
REMARK  136  A    between atoms: _342  and  _345
REMARK  137  A    between atoms: _345  and  _346
REMARK  138  A    between atoms: _351  and  _353
REMARK  139  A    between atoms: _353  and  _354
REMARK  140  A    between atoms: _353  and  _356
REMARK  141  A    between atoms: _356  and  _357
REMARK  142  A    between atoms: _360  and  _362
REMARK  143  A    between atoms: _362  and  _363
REMARK  144  A    between atoms: _362  and  _365
REMARK  145  A    between atoms: _365  and  _366
REMARK  146  A    between atoms: _366  and  _367
REMARK  147  A    between atoms: _367  and  _368
REMARK  148  A    between atoms: _377  and  _379
REMARK  149  A    between atoms: _379  and  _380
REMARK  150  A    between atoms: _379  and  _382
REMARK  151  A    between atoms: _382  and  _383
REMARK  152  A    between atoms: _386  and  _388
REMARK  153  A    between atoms: _388  and  _389
REMARK  154  A    between atoms: _388  and  _391
REMARK  155  A    between atoms: _391  and  _392
REMARK  156  A    between atoms: _395  and  _397
REMARK  157  A    between atoms: _397  and  _398
REMARK  158  A    between atoms: _397  and  _400
REMARK  159  A    between atoms: _400  and  _401
REMARK  160  A    between atoms: _406  and  _407
REMARK  161  A    between atoms: _409  and  _411
REMARK  162  A    between atoms: _411  and  _412
REMARK  163  A    between atoms: _411  and  _414
REMARK  164  A    between atoms: _414  and  _415
REMARK  165  A    between atoms: _420  and  _421
REMARK  166  A    between atoms: _423  and  _425
REMARK  167  A    between atoms: _425  and  _426
REMARK  168  A    between atoms: _425  and  _428
REMARK  169  A    between atoms: _428  and  _429
REMARK  170  A    between atoms: _432  and  _434
REMARK  171  A    between atoms: _434  and  _435
REMARK  172  A    between atoms: _434  and  _437
REMARK  173  A    between atoms: _437  and  _438
REMARK  174  A    between atoms: _438  and  _439
REMARK  175  A    between atoms: _444  and  _446
REMARK  176  A    between atoms: _446  and  _447
REMARK  177  A    between atoms: _446  and  _449
REMARK  178  A    between atoms: _449  and  _450
REMARK  179  A    between atoms: _460  and  _462
REMARK  180  A    between atoms: _462  and  _463
REMARK  181  A    between atoms: _462  and  _465
REMARK  182  A    between atoms: _465  and  _466
REMARK  183  A    between atoms: _466  and  _467
REMARK  184  A    between atoms: _469  and  _471
REMARK  185  A    between atoms: _471  and  _472
REMARK  186  A    between atoms: _471  and  _474
REMARK  187  A    between atoms: _474  and  _475
REMARK  188  A    between atoms: _480  and  _482
REMARK  189  A    between atoms: _482  and  _483
REMARK  190  A    between atoms: _485  and  _487
REMARK  191  A    between atoms: _487  and  _488
REMARK  192  A    between atoms: _487  and  _490
REMARK  193  A    between atoms: _490  and  _491
REMARK  194  A    between atoms: _491  and  _814
REMARK  195  A    between atoms: _492  and  _494
REMARK  196  A    between atoms: _494  and  _495
REMARK  197  A    between atoms: _494  and  _497
REMARK  198  A    between atoms: _497  and  _498
REMARK  199  A    between atoms: _498  and  _499
REMARK  200  A    between atoms: _502  and  _504
REMARK  201  A    between atoms: _504  and  _505
REMARK  202  A    between atoms: _504  and  _507
REMARK  203  A    between atoms: _507  and  _508
REMARK  204  A    between atoms: _508  and  _509
REMARK  205  A    between atoms: _514  and  _516
REMARK  206  A    between atoms: _516  and  _517
REMARK  207  A    between atoms: _516  and  _519
REMARK  208  A    between atoms: _519  and  _520
REMARK  209  A    between atoms: _526  and  _528
REMARK  210  A    between atoms: _528  and  _529
REMARK  211  A    between atoms: _532  and  _534
REMARK  212  A    between atoms: _534  and  _535
REMARK  213  A    between atoms: _534  and  _537
REMARK  214  A    between atoms: _537  and  _538
REMARK  215  A    between atoms: _543  and  _544
REMARK  216  A    between atoms: _546  and  _548
REMARK  217  A    between atoms: _548  and  _549
REMARK  218  A    between atoms: _548  and  _551
REMARK  219  A    between atoms: _551  and  _552
REMARK  220  A    between atoms: _557  and  _558
REMARK  221  A    between atoms: _560  and  _562
REMARK  222  A    between atoms: _562  and  _563
REMARK  223  A    between atoms: _562  and  _565
REMARK  224  A    between atoms: _565  and  _566
REMARK  225  A    between atoms: _569  and  _571
REMARK  226  A    between atoms: _571  and  _572
REMARK  227  A    between atoms: _571  and  _574
REMARK  228  A    between atoms: _574  and  _575
REMARK  229  A    between atoms: _578  and  _580
REMARK  230  A    between atoms: _580  and  _581
REMARK  231  A    between atoms: _580  and  _583
REMARK  232  A    between atoms: _583  and  _584
REMARK  233  A    between atoms: _587  and  _589
REMARK  234  A    between atoms: _589  and  _590
REMARK  235  A    between atoms: _589  and  _592
REMARK  236  A    between atoms: _592  and  _593
REMARK  237  A    between atoms: _603  and  _605
REMARK  238  A    between atoms: _605  and  _606
REMARK  239  A    between atoms: _605  and  _608
REMARK  240  A    between atoms: _608  and  _609
REMARK  241  A    between atoms: _612  and  _614
REMARK  242  A    between atoms: _614  and  _615
REMARK  243  A    between atoms: _618  and  _620
REMARK  244  A    between atoms: _620  and  _621
REMARK  245  A    between atoms: _624  and  _626
REMARK  246  A    between atoms: _626  and  _627
REMARK  247  A    between atoms: _626  and  _629
REMARK  248  A    between atoms: _629  and  _630
REMARK  249  A    between atoms: _630  and  _631
REMARK  250  A    between atoms: _636  and  _638
REMARK  251  A    between atoms: _638  and  _639
REMARK  252  A    between atoms: _638  and  _641
REMARK  253  A    between atoms: _641  and  _642
REMARK  254  A    between atoms: _645  and  _647
REMARK  255  A    between atoms: _647  and  _648
REMARK  256  A    between atoms: _647  and  _650
REMARK  257  A    between atoms: _650  and  _651
REMARK  258  A    between atoms: _653  and  _655
REMARK  259  A    between atoms: _655  and  _656
REMARK  260  A    between atoms: _655  and  _658
REMARK  261  A    between atoms: _658  and  _659
REMARK  262  A    between atoms: _659  and  _660
REMARK  263  A    between atoms: _663  and  _665
REMARK  264  A    between atoms: _665  and  _666
REMARK  265  A    between atoms: _665  and  _668
REMARK  266  A    between atoms: _668  and  _669
REMARK  267  A    between atoms: _669  and  _670
REMARK  268  A    between atoms: _675  and  _677
REMARK  269  A    between atoms: _677  and  _678
REMARK  270  A    between atoms: _677  and  _680
REMARK  271  A    between atoms: _680  and  _681
REMARK  272  A    between atoms: _681  and  _682
REMARK  273  A    between atoms: _682  and  _683
REMARK  274  A    between atoms: _683  and  _684
REMARK  275  A    between atoms: _688  and  _690
REMARK  276  A    between atoms: _690  and  _691
REMARK  277  A    between atoms: _690  and  _693
REMARK  278  A    between atoms: _693  and  _694
REMARK  279  A    between atoms: _696  and  _698
REMARK  280  A    between atoms: _698  and  _699
REMARK  281  A    between atoms: _698  and  _701
REMARK  282  A    between atoms: _701  and  _702
REMARK  283  A    between atoms: _707  and  _709
REMARK  284  A    between atoms: _709  and  _710
REMARK  285  A    between atoms: _713  and  _715
REMARK  286  A    between atoms: _715  and  _716
REMARK  287  A    between atoms: _715  and  _718
REMARK  288  A    between atoms: _718  and  _719
REMARK  289  A    between atoms: _721  and  _723
REMARK  290  A    between atoms: _723  and  _724
REMARK  291  A    between atoms: _723  and  _726
REMARK  292  A    between atoms: _726  and  _727
REMARK  293  A    between atoms: _727  and  _728
REMARK  294  A    between atoms: _731  and  _733
REMARK  295  A    between atoms: _733  and  _734
REMARK  296  A    between atoms: _737  and  _739
REMARK  297  A    between atoms: _739  and  _740
REMARK  298  A    between atoms: _739  and  _742
REMARK  299  A    between atoms: _742  and  _743
REMARK  300  A    between atoms: _743  and  _744
REMARK  301  A    between atoms: _747  and  _749
REMARK  302  A    between atoms: _749  and  _750
REMARK  303  A    between atoms: _749  and  _752
REMARK  304  A    between atoms: _752  and  _753
REMARK  305  A    between atoms: _758  and  _760
REMARK  306  A    between atoms: _760  and  _761
REMARK  307  A    between atoms: _760  and  _763
REMARK  308  A    between atoms: _763  and  _764
REMARK  309  A    between atoms: _764  and  _765
REMARK  310  A    between atoms: _770  and  _772
REMARK  311  A    between atoms: _772  and  _773
REMARK  312  A    between atoms: _776  and  _778
REMARK  313  A    between atoms: _778  and  _779
REMARK  314  A    between atoms: _778  and  _781
REMARK  315  A    between atoms: _781  and  _782
REMARK  316  A    between atoms: _787  and  _788
REMARK  317  A    between atoms: _790  and  _792
REMARK  318  A    between atoms: _792  and  _793
REMARK  319  A    between atoms: _792  and  _795
REMARK  320  A    between atoms: _795  and  _796
REMARK  321  A    between atoms: _799  and  _801
REMARK  322  A    between atoms: _801  and  _802
REMARK  323  A    between atoms: _801  and  _804
REMARK  324  A    between atoms: _804  and  _805
REMARK  325  A    between atoms: _808  and  _810
REMARK  326  A    between atoms: _810  and  _811
REMARK  327  A    between atoms: _810  and  _813
REMARK  328  A    between atoms: _813  and  _814
REMARK  329  A    between atoms: _815  and  _817
REMARK  330  A    between atoms: _817  and  _818
REMARK  331  A    between atoms: _817  and  _820
REMARK  332  A    between atoms: _823  and  _825
REMARK  333  A    between atoms: _825  and  _826
REMARK  334  A    between atoms: _825  and  _828
REMARK  335  A    between atoms: _828  and  _829
REMARK  336  A    between atoms: _829  and  _830
REMARK  337  A    between atoms: _833  and  _835
REMARK  338  A    between atoms: _835  and  _836
REMARK  339  A    between atoms: _835  and  _838
REMARK  340  A    between atoms: _838  and  _839
REMARK  341  A    between atoms: _849  and  _851
REMARK  342  A    between atoms: _851  and  _852
REMARK  343  A    between atoms: _851  and  _854
REMARK  344  A    between atoms: _854  and  _855
REMARK  345  A    between atoms: _858  and  _860
REMARK  346  A    between atoms: _860  and  _861
REMARK  347  A    between atoms: _860  and  _863
REMARK  348  A    between atoms: _863  and  _864
REMARK  349  A    between atoms: _864  and  _865
REMARK  350  A    between atoms: _865  and  _866
REMARK  351  A    between atoms: _866  and  _867
REMARK  352  A    between atoms: _871  and  _873
REMARK  353  A    between atoms: _873  and  _874
REMARK  354  A    between atoms: _873  and  _876
REMARK  355  A    between atoms: _876  and  _877
REMARK  356  A    between atoms: _882  and  _883
REMARK                            x       y       z     vdW  Elec       q    Type
REMARK                         _______ _______ _______ _____ _____    ______ ____
ROOT
ATOM      1  C   LEU A   6      22.524  -2.126  14.702  0.00  0.00    +0.243 C 
ATOM      2  O   LEU A   6      21.958  -1.678  15.679  0.00  0.00    -0.273 OA
ATOM      3  N   CYS A   7      23.831  -2.018  14.460  0.00  0.00    -0.297 N 
ATOM      4  H   CYS A   7      24.220  -2.460  13.602  0.00  0.00    +0.150 HD
ENDROOT
BRANCH   1   5
ATOM      5  CA  LEU A   6      21.759  -2.831  13.652  0.00  0.00    +0.176 C 
BRANCH   5   7
ATOM      6  C   TRP A   5      19.768  -4.165  13.380  0.00  0.00    +0.241 C 
ATOM      7  N   LEU A   6      20.453  -3.282  14.107  0.00  0.00    -0.295 N 
ATOM      8  H   LEU A   6      20.055  -2.917  14.996  0.00  0.00    +0.150 HD
ATOM      9  O   TRP A   5      20.170  -4.631  12.308  0.00  0.00    -0.273 OA
BRANCH   6  10
ATOM     10  CA  TRP A   5      18.473  -4.626  13.941  0.00  0.00    +0.155 C 
BRANCH  10  13
ATOM     11  C   GLU A   4      16.176  -4.884  13.177  0.00  0.00    +0.241 C 
ATOM     12  O   GLU A   4      15.683  -4.728  14.250  0.00  0.00    -0.273 OA
ATOM     13  N   TRP A   5      17.499  -4.856  12.940  0.00  0.00    -0.297 N 
ATOM     14  H   TRP A   5      17.826  -5.012  11.965  0.00  0.00    +0.150 HD
BRANCH  11  15
ATOM     15  CA  GLU A   4      15.344  -5.169  11.920  0.00  0.00    +0.149 C 
BRANCH  15  17
ATOM     16  C   VAL A   3      13.746  -6.916  11.581  0.00  0.00    +0.241 C 
ATOM     17  N   GLU A   4      14.140  -5.829  12.243  0.00  0.00    -0.297 N 
ATOM     18  H   GLU A   4      13.548  -5.460  13.014  0.00  0.00    +0.150 HD
ATOM     19  O   VAL A   3      14.388  -7.382  10.665  0.00  0.00    -0.273 OA
BRANCH  16  20
ATOM     20  CA  VAL A   3      12.526  -7.608  12.086  0.00  0.00    +0.153 C 
BRANCH  20  23
ATOM     21  C   CYS A   2      10.287  -7.714  11.300  0.00  0.00    +0.241 C 
ATOM     22  O   CYS A   2       9.824  -7.491  12.450  0.00  0.00    -0.273 OA
ATOM     23  N   VAL A   3      11.589  -7.717  11.034  0.00  0.00    -0.297 N 
ATOM     24  H   VAL A   3      11.918  -7.800  10.051  0.00  0.00    +0.150 HD
BRANCH  21  25
ATOM     25  CA  CYS A   2       9.338  -7.860  10.122  0.00  0.00    +0.149 C 
BRANCH  25  27
ATOM     26  C   THR A   1       7.767  -9.725  10.065  0.00  0.00    +0.238 C 
ATOM     27  N   CYS A   2       8.047  -8.493  10.491  0.00  0.00    -0.297 N 
ATOM     28  H   CYS A   2       7.363  -7.977  11.080  0.00  0.00    +0.150 HD
ATOM     29  O   THR A   1       8.550 -10.414   9.319  0.00  0.00    -0.274 OA
BRANCH  26  30
ATOM     30  CA  THR A   1       6.462 -10.298  10.576  0.00  0.00    +0.145 C 
BRANCH  30  31
ATOM     31  N   THR A   1       5.679 -10.645   9.387  0.00  0.00    -0.238 NA
ATOM     32  H   THR A   1       5.997 -11.424   8.776  0.00  0.00    +0.142 HD
ENDBRANCH  30  31
BRANCH  30  33
ATOM     33  CB  THR A   1       6.759 -11.510  11.419  0.00  0.00    +0.026 C 
BRANCH  33  34
ATOM     34  CG  THR A   1       7.586 -11.342  12.679  0.00  0.00    +0.002 C 
ATOM     35  CD2 THR A   1       7.004 -10.323  13.657  0.00  0.00    +0.000 C 
ATOM     36  CD1 THR A   1       7.744 -12.754  13.322  0.00  0.00    +0.000 C 
ENDBRANCH  33  34
ENDBRANCH  30  33
ENDBRANCH  26  30
ENDBRANCH  25  27
BRANCH  25  37
ATOM     37  CB  CYS A   2       9.093  -6.493   9.467  0.00  0.00    +0.039 C 
BRANCH  37  38
ATOM     38  CG  CYS A   2       8.575  -6.677   8.058  0.00  0.00    +0.087 C 
BRANCH  38  39
ATOM     39  CD  CYS A   2       8.129  -5.435   7.414  0.00  0.00    +0.219 C 
ATOM     40  OE1 CYS A   2       7.060  -4.982   7.703  0.00  0.00    -0.275 OA
ATOM     41  NE2 CYS A   2       8.982  -4.846   6.577  0.00  0.00    -0.329 N 
ATOM     42 HE21 CYS A   2       9.897  -5.293   6.367  0.00  0.00    +0.145 HD
ATOM     43 HE22 CYS A   2       8.733  -3.939   6.133  0.00  0.00    +0.145 HD
ENDBRANCH  38  39
ENDBRANCH  37  38
ENDBRANCH  25  37
ENDBRANCH  21  25
ENDBRANCH  20  23
BRANCH  20  44
ATOM     44  CB  VAL A   3      12.864  -8.995  12.580  0.00  0.00    +0.057 C 
BRANCH  44  45
ATOM     45  CG  VAL A   3      13.911  -9.061  13.747  0.00  0.00    -0.002 A 
ATOM     46  CD1 VAL A   3      14.034  -8.157  14.824  0.00  0.00    +0.068 A 
ATOM     47  NE1 VAL A   3      15.022  -8.575  15.691  0.00  0.00    -0.352 N 
ATOM     48  HE1 VAL A   3      15.317  -8.090  16.562  0.00  0.00    +0.166 HD
ATOM     49  CE2 VAL A   3      15.552  -9.757  15.195  0.00  0.00    +0.056 A 
ATOM     50  CZ2 VAL A   3      16.607 -10.633  15.750  0.00  0.00    +0.017 A 
ATOM     51  CH2 VAL A   3      16.931 -11.754  15.017  0.00  0.00    +0.001 A 
ATOM     52  CZ3 VAL A   3      16.246 -12.068  13.852  0.00  0.00    +0.000 A 
ATOM     53  CE3 VAL A   3      15.206 -11.256  13.353  0.00  0.00    +0.001 A 
ATOM     54  CD2 VAL A   3      14.874 -10.086  13.987  0.00  0.00    +0.013 A 
ENDBRANCH  44  45
ENDBRANCH  20  44
ENDBRANCH  16  20
ENDBRANCH  15  17
BRANCH  15  55
ATOM     55  CB  GLU A   4      15.033  -3.875  11.199  0.00  0.00    +0.041 C 
BRANCH  55  56
ATOM     56  CG  GLU A   4      14.420  -2.849  12.099  0.00  0.00    +0.060 C 
BRANCH  56  57
ATOM     57  SD  GLU A   4      14.049  -1.400  11.043  0.00  0.00    -0.139 S 
ATOM     58  CE  GLU A   4      13.380  -0.182  12.232  0.00  0.00    +0.069 C 
ENDBRANCH  56  57
ENDBRANCH  55  56
ENDBRANCH  15  55
ENDBRANCH  11  15
ENDBRANCH  10  13
BRANCH  10  59
ATOM     59  CB  TRP A   5      18.699  -5.902  14.730  0.00  0.00    +0.076 C 
BRANCH  59  60
ATOM     60  CG  TRP A   5      19.237  -7.056  13.915  0.00  0.00    +0.082 A 
ATOM     61  CD2 TRP A   5      18.716  -8.275  13.647  0.00  0.00    +0.115 A 
ATOM     62  NE2 TRP A   5      19.689  -9.011  13.006  0.00  0.00    -0.221 NA
ATOM     63  CE1 TRP A   5      20.768  -8.256  12.895  0.00  0.00    +0.199 A 
ATOM     64  ND1 TRP A   5      20.545  -7.091  13.485  0.00  0.00    -0.227 NA
ENDBRANCH  59  60
ENDBRANCH  10  59
ENDBRANCH   6  10
ENDBRANCH   5   7
ENDBRANCH   1   5
BRANCH   3  65
ATOM     65  CA  CYS A   7      24.721  -1.315  15.339  0.00  0.00    +0.149 C 
BRANCH  65  66
ATOM     66  C   CYS A   7      25.408  -0.228  14.566  0.00  0.00    +0.228 C 
ATOM     67  O   CYS A   7      25.621  -0.370  13.456  0.00  0.00    -0.286 OA
ENDBRANCH  65  66
BRANCH  65  68
ATOM     68  CB  CYS A   7      25.674  -2.291  15.990  0.00  0.00    +0.096 C 
BRANCH  68  69
ATOM     69  SG  CYS A   7      26.786  -3.202  14.904  0.00  0.00    -0.080 S 
BRANCH  69  70
ATOM     70  SG  CYS A   2      25.879  -4.997  14.636  0.00  0.00    -0.080 S 
BRANCH  70  71
ATOM     71  CB  CYS A   2      26.470  -5.897  16.094  0.00  0.00    +0.098 C 
BRANCH  71  72
ATOM     72  CA  CYS A   2      27.684  -6.742  15.787  0.00  0.00    +0.160 C 
BRANCH  72  73
ATOM     73  N   CYS A   2      28.018  -7.534  16.943  0.00  0.00    -0.296 N 
ATOM     74  H   CYS A   2      27.397  -7.486  17.776  0.00  0.00    +0.150 HD
ATOM     75  C   THR A   1      29.084  -8.322  16.991  0.00  0.00    +0.241 C 
ATOM     76  O   THR A   1      29.892  -8.317  16.142  0.00  0.00    -0.274 OA
BRANCH  75  77
ATOM     77  CA  THR A   1      29.230  -9.180  18.233  0.00  0.00    +0.172 C 
BRANCH  77  78
ATOM     78  CB  THR A   1      28.150 -10.192  18.201  0.00  0.00    +0.135 C 
ATOM     79  CG2 THR A   1      28.412 -11.161  17.185  0.00  0.00    +0.034 C 
BRANCH  78  80
ATOM     80  OG1 THR A   1      28.090 -10.825  19.466  0.00  0.00    -0.383 OA
ATOM     81  HG1 THR A   1      27.371 -11.505  19.459  0.00  0.00    +0.210 HD
ENDBRANCH  78  80
ENDBRANCH  77  78
BRANCH  77  82
ATOM     82  N   THR A   1      29.145  -8.357  19.421  0.00  0.00    -0.236 NA
ATOM     83  H   THR A   1      28.443  -8.584  20.154  0.00  0.00    +0.142 HD
ENDBRANCH  77  82
ENDBRANCH  75  77
ENDBRANCH  72  73
BRANCH  72  84
ATOM     84  C   CYS A   2      28.810  -5.857  15.529  0.00  0.00    +0.242 C 
ATOM     85  N   VAL A   3      29.329  -5.209  16.580  0.00  0.00    -0.297 N 
ATOM     86  H   VAL A   3      28.924  -5.341  17.529  0.00  0.00    +0.150 HD
ATOM     87  O   CYS A   2      29.252  -5.815  14.385  0.00  0.00    -0.273 OA
BRANCH  85  88
ATOM     88  CA  VAL A   3      30.502  -4.288  16.378  0.00  0.00    +0.149 C 
BRANCH  88  89
ATOM     89  C   VAL A   3      31.716  -5.076  15.874  0.00  0.00    +0.241 C 
ATOM     90  N   GLU A   4      32.071  -6.144  16.551  0.00  0.00    -0.297 N 
ATOM     91  H   GLU A   4      31.543  -6.427  17.401  0.00  0.00    +0.150 HD
ATOM     92  O   VAL A   3      32.266  -4.775  14.882  0.00  0.00    -0.273 OA
BRANCH  90  93
ATOM     93  CA  GLU A   4      33.226  -6.937  16.093  0.00  0.00    +0.149 C 
BRANCH  93  94
ATOM     94  C   GLU A   4      33.155  -7.261  14.667  0.00  0.00    +0.241 C 
ATOM     95  N   TRP A   5      31.975  -7.654  14.247  0.00  0.00    -0.297 N 
ATOM     96  H   TRP A   5      31.155  -7.611  14.885  0.00  0.00    +0.150 HD
ATOM     97  O   GLU A   4      34.184  -7.257  13.945  0.00  0.00    -0.273 OA
BRANCH  95  98
ATOM     98  CA  TRP A   5      31.816  -8.150  12.887  0.00  0.00    +0.153 C 
BRANCH  98  99
ATOM     99  C   TRP A   5      31.792  -6.977  11.882  0.00  0.00    +0.241 C 
ATOM    100  N   LEU A   6      31.243  -5.859  12.312  0.00  0.00    -0.298 N 
ATOM    101  H   LEU A   6      30.802  -5.836  13.254  0.00  0.00    +0.150 HD
ATOM    102  O   TRP A   5      32.230  -7.093  10.780  0.00  0.00    -0.273 OA
BRANCH 100 103
ATOM    103  CA  LEU A   6      31.242  -4.664  11.499  0.00  0.00    +0.137 C 
BRANCH 103 104
ATOM    104  C   LEU A   6      32.615  -4.347  11.084  0.00  0.00    +0.227 C 
ATOM    105  O   LEU A   6      32.879  -4.037   9.919  0.00  0.00    -0.286 OA
ENDBRANCH 103 104
BRANCH 103 106
ATOM    106  CB  LEU A   6      30.626  -3.490  12.197  0.00  0.00    +0.028 C 
BRANCH 106 107
ATOM    107  CG  LEU A   6      30.574  -2.215  11.405  0.00  0.00    +0.002 C 
ATOM    108  CD2 LEU A   6      29.694  -1.216  12.064  0.00  0.00    +0.000 C 
ATOM    109  CD1 LEU A   6      30.245  -2.426   9.913  0.00  0.00    +0.000 C 
ENDBRANCH 106 107
ENDBRANCH 103 106
ENDBRANCH 100 103
ENDBRANCH  98  99
BRANCH  98 110
ATOM    110  CB  TRP A   5      30.556  -9.075  12.741  0.00  0.00    +0.057 C 
BRANCH 110 111
ATOM    111  CG  TRP A   5      30.853 -10.437  13.083  0.00  0.00    -0.002 A 
ATOM    112  CD1 TRP A   5      30.700 -10.959  14.231  0.00  0.00    +0.068 A 
ATOM    113  NE1 TRP A   5      31.106 -12.265  14.232  0.00  0.00    -0.352 N 
ATOM    114  HE1 TRP A   5      31.051 -12.910  15.046  0.00  0.00    +0.166 HD
ATOM    115  CE2 TRP A   5      31.586 -12.585  13.023  0.00  0.00    +0.056 A 
ATOM    116  CZ2 TRP A   5      32.126 -13.761  12.571  0.00  0.00    +0.017 A 
ATOM    117  CH2 TRP A   5      32.492 -13.815  11.251  0.00  0.00    +0.001 A 
ATOM    118  CZ3 TRP A   5      32.354 -12.701  10.444  0.00  0.00    +0.000 A 
ATOM    119  CE3 TRP A   5      31.849 -11.508  10.933  0.00  0.00    +0.001 A 
ATOM    120  CD2 TRP A   5      31.410 -11.471  12.238  0.00  0.00    +0.013 A 
ENDBRANCH 110 111
ENDBRANCH  98 110
ENDBRANCH  95  98
ENDBRANCH  93  94
BRANCH  93 121
ATOM    121  CB  GLU A   4      33.336  -8.232  16.886  0.00  0.00    +0.041 C 
BRANCH 121 122
ATOM    122  CG  GLU A   4      33.832  -8.043  18.348  0.00  0.00    +0.116 C 
BRANCH 122 123
ATOM    123  CD  GLU A   4      32.998  -8.989  19.408  0.00  0.00    +0.365 C 
ATOM    124  OE2 GLU A   4      31.998  -8.490  20.090  0.00  0.00    -0.246 OA
ATOM    125  OE1 GLU A   4      33.336 -10.216  19.593  0.00  0.00    -0.246 OA
ENDBRANCH 122 123
ENDBRANCH 121 122
ENDBRANCH  93 121
ENDBRANCH  90  93
ENDBRANCH  88  89
BRANCH  88 126
ATOM    126  CB  VAL A   3      30.911  -3.546  17.657  0.00  0.00    +0.027 C 
ATOM    127  CG2 VAL A   3      29.723  -2.742  18.177  0.00  0.00    +0.002 C 
ATOM    128  CG1 VAL A   3      32.219  -2.718  17.452  0.00  0.00    +0.002 C 
ENDBRANCH  88 126
ENDBRANCH  85  88
ENDBRANCH  72  84
ENDBRANCH  71  72
ENDBRANCH  70  71
ENDBRANCH  69  70
ENDBRANCH  68  69
ENDBRANCH  65  68
ENDBRANCH   3  65
TORSDOF 53
REMARK  Name = ../refined-set-2016/3bzf/3bzf_pocket.pdb
REMARK  356 active torsions:
REMARK  status: ('A' for Active; 'I' for Inactive)
REMARK    1  A    between atoms: _1  and  _3
REMARK    2  A    between atoms: _3  and  _4
REMARK    3  A    between atoms: _3  and  _6
REMARK    4  A    between atoms: _6  and  _7
REMARK    5  A    between atoms: _10  and  _12
REMARK    6  A    between atoms: _12  and  _13
REMARK    7  A    between atoms: _12  and  _15
REMARK    8  A    between atoms: _15  and  _16
REMARK    9  A    between atoms: _16  and  _17
REMARK   10  A    between atoms: _17  and  _18
REMARK   11  A    between atoms: _18  and  _19
REMARK   12  A    between atoms: _23  and  _25
REMARK   13  A    between atoms: _25  and  _26
REMARK   14  A    between atoms: _25  and  _28
REMARK   15  A    between atoms: _28  and  _29
REMARK   16  A    between atoms: _34  and  _35
REMARK   17  A    between atoms: _37  and  _39
REMARK   18  A    between atoms: _39  and  _40
REMARK   19  A    between atoms: _39  and  _42
REMARK   20  A    between atoms: _42  and  _43
REMARK   21  A    between atoms: _49  and  _51
REMARK   22  A    between atoms: _51  and  _52
REMARK   23  A    between atoms: _51  and  _54
REMARK   24  A    between atoms: _54  and  _55
REMARK   25  A    between atoms: _60  and  _62
REMARK   26  A    between atoms: _62  and  _63
REMARK   27  A    between atoms: _62  and  _65
REMARK   28  A    between atoms: _65  and  _66
REMARK   29  A    between atoms: _72  and  _74
REMARK   30  A    between atoms: _74  and  _75
REMARK   31  A    between atoms: _74  and  _77
REMARK   32  A    between atoms: _77  and  _78
REMARK   33  A    between atoms: _81  and  _83
REMARK   34  A    between atoms: _83  and  _84
REMARK   35  A    between atoms: _83  and  _86
REMARK   36  A    between atoms: _86  and  _87
REMARK   37  A    between atoms: _89  and  _91
REMARK   38  A    between atoms: _91  and  _92
REMARK   39  A    between atoms: _91  and  _94
REMARK   40  A    between atoms: _97  and  _99
REMARK   41  A    between atoms: _99  and  _100
REMARK   42  A    between atoms: _102  and  _104
REMARK   43  A    between atoms: _104  and  _105
REMARK   44  A    between atoms: _104  and  _107
REMARK   45  A    between atoms: _107  and  _108
REMARK   46  A    between atoms: _114  and  _116
REMARK   47  A    between atoms: _116  and  _117
REMARK   48  A    between atoms: _116  and  _119
REMARK   49  A    between atoms: _122  and  _124
REMARK   50  A    between atoms: _124  and  _125
REMARK   51  A    between atoms: _124  and  _127
REMARK   52  A    between atoms: _127  and  _128
REMARK   53  A    between atoms: _128  and  _129
REMARK   54  A    between atoms: _129  and  _130
REMARK   55  A    between atoms: _139  and  _141
REMARK   56  A    between atoms: _141  and  _142
REMARK   57  A    between atoms: _141  and  _144
REMARK   58  A    between atoms: _144  and  _145
REMARK   59  A    between atoms: _151  and  _153
REMARK   60  A    between atoms: _153  and  _154
REMARK   61  A    between atoms: _153  and  _156
REMARK   62  A    between atoms: _156  and  _157
REMARK   63  A    between atoms: _157  and  _158
REMARK   64  A    between atoms: _160  and  _162
REMARK   65  A    between atoms: _162  and  _163
REMARK   66  A    between atoms: _162  and  _165
REMARK   67  A    between atoms: _165  and  _166
REMARK   68  A    between atoms: _171  and  _172
REMARK   69  A    between atoms: _174  and  _176
REMARK   70  A    between atoms: _176  and  _177
REMARK   71  A    between atoms: _176  and  _179
REMARK   72  A    between atoms: _179  and  _180
REMARK   73  A    between atoms: _180  and  _181
REMARK   74  A    between atoms: _181  and  _182
REMARK   75  A    between atoms: _191  and  _193
REMARK   76  A    between atoms: _193  and  _194
REMARK   77  A    between atoms: _193  and  _196
REMARK   78  A    between atoms: _196  and  _197
REMARK   79  A    between atoms: _197  and  _198
REMARK   80  A    between atoms: _201  and  _203
REMARK   81  A    between atoms: _203  and  _204
REMARK   82  A    between atoms: _203  and  _206
REMARK   83  A    between atoms: _206  and  _207
REMARK   84  A    between atoms: _210  and  _212
REMARK   85  A    between atoms: _212  and  _213
REMARK   86  A    between atoms: _212  and  _215
REMARK   87  A    between atoms: _215  and  _216
REMARK   88  A    between atoms: _216  and  _217
REMARK   89  A    between atoms: _217  and  _218
REMARK   90  A    between atoms: _227  and  _229
REMARK   91  A    between atoms: _229  and  _230
REMARK   92  A    between atoms: _229  and  _232
REMARK   93  A    between atoms: _232  and  _233
REMARK   94  A    between atoms: _235  and  _237
REMARK   95  A    between atoms: _237  and  _238
REMARK   96  A    between atoms: _241  and  _243
REMARK   97  A    between atoms: _243  and  _244
REMARK   98  A    between atoms: _243  and  _246
REMARK   99  A    between atoms: _246  and  _247
REMARK  100  A    between atoms: _247  and  _248
REMARK  101  A    between atoms: _248  and  _249
REMARK  102  A    between atoms: _258  and  _260
REMARK  103  A    between atoms: _260  and  _261
REMARK  104  A    between atoms: _260  and  _263
REMARK  105  A    between atoms: _263  and  _264
REMARK  106  A    between atoms: _267  and  _269
REMARK  107  A    between atoms: _269  and  _270
REMARK  108  A    between atoms: _269  and  _272
REMARK  109  A    between atoms: _272  and  _273
REMARK  110  A    between atoms: _276  and  _278
REMARK  111  A    between atoms: _278  and  _279
REMARK  112  A    between atoms: _282  and  _284
REMARK  113  A    between atoms: _284  and  _285
REMARK  114  A    between atoms: _284  and  _287
REMARK  115  A    between atoms: _287  and  _288
REMARK  116  A    between atoms: _288  and  _289
REMARK  117  A    between atoms: _294  and  _296
REMARK  118  A    between atoms: _296  and  _297
REMARK  119  A    between atoms: _296  and  _299
REMARK  120  A    between atoms: _299  and  _300
REMARK  121  A    between atoms: _303  and  _305
REMARK  122  A    between atoms: _305  and  _306
REMARK  123  A    between atoms: _305  and  _308
REMARK  124  A    between atoms: _308  and  _309
REMARK  125  A    between atoms: _315  and  _317
REMARK  126  A    between atoms: _317  and  _318
REMARK  127  A    between atoms: _317  and  _320
REMARK  128  A    between atoms: _320  and  _321
REMARK  129  A    between atoms: _321  and  _322
REMARK  130  A    between atoms: _322  and  _323
REMARK  131  A    between atoms: _332  and  _334
REMARK  132  A    between atoms: _334  and  _335
REMARK  133  A    between atoms: _334  and  _337
REMARK  134  A    between atoms: _340  and  _342
REMARK  135  A    between atoms: _342  and  _343
REMARK  136  A    between atoms: _342  and  _345
REMARK  137  A    between atoms: _345  and  _346
REMARK  138  A    between atoms: _351  and  _353
REMARK  139  A    between atoms: _353  and  _354
REMARK  140  A    between atoms: _353  and  _356
REMARK  141  A    between atoms: _356  and  _357
REMARK  142  A    between atoms: _360  and  _362
REMARK  143  A    between atoms: _362  and  _363
REMARK  144  A    between atoms: _362  and  _365
REMARK  145  A    between atoms: _365  and  _366
REMARK  146  A    between atoms: _366  and  _367
REMARK  147  A    between atoms: _367  and  _368
REMARK  148  A    between atoms: _377  and  _379
REMARK  149  A    between atoms: _379  and  _380
REMARK  150  A    between atoms: _379  and  _382
REMARK  151  A    between atoms: _382  and  _383
REMARK  152  A    between atoms: _386  and  _388
REMARK  153  A    between atoms: _388  and  _389
REMARK  154  A    between atoms: _388  and  _391
REMARK  155  A    between atoms: _391  and  _392
REMARK  156  A    between atoms: _395  and  _397
REMARK  157  A    between atoms: _397  and  _398
REMARK  158  A    between atoms: _397  and  _400
REMARK  159  A    between atoms: _400  and  _401
REMARK  160  A    between atoms: _406  and  _407
REMARK  161  A    between atoms: _409  and  _411
REMARK  162  A    between atoms: _411  and  _412
REMARK  163  A    between atoms: _411  and  _414
REMARK  164  A    between atoms: _414  and  _415
REMARK  165  A    between atoms: _420  and  _421
REMARK  166  A    between atoms: _423  and  _425
REMARK  167  A    between atoms: _425  and  _426
REMARK  168  A    between atoms: _425  and  _428
REMARK  169  A    between atoms: _428  and  _429
REMARK  170  A    between atoms: _432  and  _434
REMARK  171  A    between atoms: _434  and  _435
REMARK  172  A    between atoms: _434  and  _437
REMARK  173  A    between atoms: _437  and  _438
REMARK  174  A    between atoms: _438  and  _439
REMARK  175  A    between atoms: _444  and  _446
REMARK  176  A    between atoms: _446  and  _447
REMARK  177  A    between atoms: _446  and  _449
REMARK  178  A    between atoms: _449  and  _450
REMARK  179  A    between atoms: _460  and  _462
REMARK  180  A    between atoms: _462  and  _463
REMARK  181  A    between atoms: _462  and  _465
REMARK  182  A    between atoms: _465  and  _466
REMARK  183  A    between atoms: _466  and  _467
REMARK  184  A    between atoms: _469  and  _471
REMARK  185  A    between atoms: _471  and  _472
REMARK  186  A    between atoms: _471  and  _474
REMARK  187  A    between atoms: _474  and  _475
REMARK  188  A    between atoms: _480  and  _482
REMARK  189  A    between atoms: _482  and  _483
REMARK  190  A    between atoms: _485  and  _487
REMARK  191  A    between atoms: _487  and  _488
REMARK  192  A    between atoms: _487  and  _490
REMARK  193  A    between atoms: _490  and  _491
REMARK  194  A    between atoms: _491  and  _814
REMARK  195  A    between atoms: _492  and  _494
REMARK  196  A    between atoms: _494  and  _495
REMARK  197  A    between atoms: _494  and  _497
REMARK  198  A    between atoms: _497  and  _498
REMARK  199  A    between atoms: _498  and  _499
REMARK  200  A    between atoms: _502  and  _504
REMARK  201  A    between atoms: _504  and  _505
REMARK  202  A    between atoms: _504  and  _507
REMARK  203  A    between atoms: _507  and  _508
REMARK  204  A    between atoms: _508  and  _509
REMARK  205  A    between atoms: _514  and  _516
REMARK  206  A    between atoms: _516  and  _517
REMARK  207  A    between atoms: _516  and  _519
REMARK  208  A    between atoms: _519  and  _520
REMARK  209  A    between atoms: _526  and  _528
REMARK  210  A    between atoms: _528  and  _529
REMARK  211  A    between atoms: _532  and  _534
REMARK  212  A    between atoms: _534  and  _535
REMARK  213  A    between atoms: _534  and  _537
REMARK  214  A    between atoms: _537  and  _538
REMARK  215  A    between atoms: _543  and  _544
REMARK  216  A    between atoms: _546  and  _548
REMARK  217  A    between atoms: _548  and  _549
REMARK  218  A    between atoms: _548  and  _551
REMARK  219  A    between atoms: _551  and  _552
REMARK  220  A    between atoms: _557  and  _558
REMARK  221  A    between atoms: _560  and  _562
REMARK  222  A    between atoms: _562  and  _563
REMARK  223  A    between atoms: _562  and  _565
REMARK  224  A    between atoms: _565  and  _566
REMARK  225  A    between atoms: _569  and  _571
REMARK  226  A    between atoms: _571  and  _572
REMARK  227  A    between atoms: _571  and  _574
REMARK  228  A    between atoms: _574  and  _575
REMARK  229  A    between atoms: _578  and  _580
REMARK  230  A    between atoms: _580  and  _581
REMARK  231  A    between atoms: _580  and  _583
REMARK  232  A    between atoms: _583  and  _584
REMARK  233  A    between atoms: _587  and  _589
REMARK  234  A    between atoms: _589  and  _590
REMARK  235  A    between atoms: _589  and  _592
REMARK  236  A    between atoms: _592  and  _593
REMARK  237  A    between atoms: _603  and  _605
REMARK  238  A    between atoms: _605  and  _606
REMARK  239  A    between atoms: _605  and  _608
REMARK  240  A    between atoms: _608  and  _609
REMARK  241  A    between atoms: _612  and  _614
REMARK  242  A    between atoms: _614  and  _615
REMARK  243  A    between atoms: _618  and  _620
REMARK  244  A    between atoms: _620  and  _621
REMARK  245  A    between atoms: _624  and  _626
REMARK  246  A    between atoms: _626  and  _627
REMARK  247  A    between atoms: _626  and  _629
REMARK  248  A    between atoms: _629  and  _630
REMARK  249  A    between atoms: _630  and  _631
REMARK  250  A    between atoms: _636  and  _638
REMARK  251  A    between atoms: _638  and  _639
REMARK  252  A    between atoms: _638  and  _641
REMARK  253  A    between atoms: _641  and  _642
REMARK  254  A    between atoms: _645  and  _647
REMARK  255  A    between atoms: _647  and  _648
REMARK  256  A    between atoms: _647  and  _650
REMARK  257  A    between atoms: _650  and  _651
REMARK  258  A    between atoms: _653  and  _655
REMARK  259  A    between atoms: _655  and  _656
REMARK  260  A    between atoms: _655  and  _658
REMARK  261  A    between atoms: _658  and  _659
REMARK  262  A    between atoms: _659  and  _660
REMARK  263  A    between atoms: _663  and  _665
REMARK  264  A    between atoms: _665  and  _666
REMARK  265  A    between atoms: _665  and  _668
REMARK  266  A    between atoms: _668  and  _669
REMARK  267  A    between atoms: _669  and  _670
REMARK  268  A    between atoms: _675  and  _677
REMARK  269  A    between atoms: _677  and  _678
REMARK  270  A    between atoms: _677  and  _680
REMARK  271  A    between atoms: _680  and  _681
REMARK  272  A    between atoms: _681  and  _682
REMARK  273  A    between atoms: _682  and  _683
REMARK  274  A    between atoms: _683  and  _684
REMARK  275  A    between atoms: _688  and  _690
REMARK  276  A    between atoms: _690  and  _691
REMARK  277  A    between atoms: _690  and  _693
REMARK  278  A    between atoms: _693  and  _694
REMARK  279  A    between atoms: _696  and  _698
REMARK  280  A    between atoms: _698  and  _699
REMARK  281  A    between atoms: _698  and  _701
REMARK  282  A    between atoms: _701  and  _702
REMARK  283  A    between atoms: _707  and  _709
REMARK  284  A    between atoms: _709  and  _710
REMARK  285  A    between atoms: _713  and  _715
REMARK  286  A    between atoms: _715  and  _716
REMARK  287  A    between atoms: _715  and  _718
REMARK  288  A    between atoms: _718  and  _719
REMARK  289  A    between atoms: _721  and  _723
REMARK  290  A    between atoms: _723  and  _724
REMARK  291  A    between atoms: _723  and  _726
REMARK  292  A    between atoms: _726  and  _727
REMARK  293  A    between atoms: _727  and  _728
REMARK  294  A    between atoms: _731  and  _733
REMARK  295  A    between atoms: _733  and  _734
REMARK  296  A    between atoms: _737  and  _739
REMARK  297  A    between atoms: _739  and  _740
REMARK  298  A    between atoms: _739  and  _742
REMARK  299  A    between atoms: _742  and  _743
REMARK  300  A    between atoms: _743  and  _744
REMARK  301  A    between atoms: _747  and  _749
REMARK  302  A    between atoms: _749  and  _750
REMARK  303  A    between atoms: _749  and  _752
REMARK  304  A    between atoms: _752  and  _753
REMARK  305  A    between atoms: _758  and  _760
REMARK  306  A    between atoms: _760  and  _761
REMARK  307  A    between atoms: _760  and  _763
REMARK  308  A    between atoms: _763  and  _764
REMARK  309  A    between atoms: _764  and  _765
REMARK  310  A    between atoms: _770  and  _772
REMARK  311  A    between atoms: _772  and  _773
REMARK  312  A    between atoms: _776  and  _778
REMARK  313  A    between atoms: _778  and  _779
REMARK  314  A    between atoms: _778  and  _781
REMARK  315  A    between atoms: _781  and  _782
REMARK  316  A    between atoms: _787  and  _788
REMARK  317  A    between atoms: _790  and  _792
REMARK  318  A    between atoms: _792  and  _793
REMARK  319  A    between atoms: _792  and  _795
REMARK  320  A    between atoms: _795  and  _796
REMARK  321  A    between atoms: _799  and  _801
REMARK  322  A    between atoms: _801  and  _802
REMARK  323  A    between atoms: _801  and  _804
REMARK  324  A    between atoms: _804  and  _805
REMARK  325  A    between atoms: _808  and  _810
REMARK  326  A    between atoms: _810  and  _811
REMARK  327  A    between atoms: _810  and  _813
REMARK  328  A    between atoms: _813  and  _814
REMARK  329  A    between atoms: _815  and  _817
REMARK  330  A    between atoms: _817  and  _818
REMARK  331  A    between atoms: _817  and  _820
REMARK  332  A    between atoms: _823  and  _825
REMARK  333  A    between atoms: _825  and  _826
REMARK  334  A    between atoms: _825  and  _828
REMARK  335  A    between atoms: _828  and  _829
REMARK  336  A    between atoms: _829  and  _830
REMARK  337  A    between atoms: _833  and  _835
REMARK  338  A    between atoms: _835  and  _836
REMARK  339  A    between atoms: _835  and  _838
REMARK  340  A    between atoms: _838  and  _839
REMARK  341  A    between atoms: _849  and  _851
REMARK  342  A    between atoms: _851  and  _852
REMARK  343  A    between atoms: _851  and  _854
REMARK  344  A    between atoms: _854  and  _855
REMARK  345  A    between atoms: _858  and  _860
REMARK  346  A    between atoms: _860  and  _861
REMARK  347  A    between atoms: _860  and  _863
REMARK  348  A    between atoms: _863  and  _864
REMARK  349  A    between atoms: _864  and  _865
REMARK  350  A    between atoms: _865  and  _866
REMARK  351  A    between atoms: _866  and  _867
REMARK  352  A    between atoms: _871  and  _873
REMARK  353  A    between atoms: _873  and  _874
REMARK  354  A    between atoms: _873  and  _876
REMARK  355  A    between atoms: _876  and  _877
REMARK  356  A    between atoms: _882  and  _883
REMARK                            x       y       z     vdW  Elec       q    Type
REMARK                         _______ _______ _______ _____ _____    ______ ____
ROOT
ATOM      1  CA  PHE A   3       9.513  -5.975  15.383  0.00  0.00    +0.153 C 
ENDROOT
BRANCH   1   3
ATOM      2  C   GLN A   2      11.670  -4.959  15.642  0.00  0.00    +0.241 C 
ATOM      3  N   PHE A   3      10.419  -5.092  16.043  0.00  0.00    -0.297 N 
ATOM      4  H   PHE A   3      10.086  -4.540  16.859  0.00  0.00    +0.150 HD
ATOM      5  O   GLN A   2      12.147  -5.565  14.753  0.00  0.00    -0.273 OA
BRANCH   2   6
ATOM      6  CA  GLN A   2      12.457  -3.957  16.420  0.00  0.00    +0.149 C 
BRANCH   6   9
ATOM      7  C   GLU A   1      14.668  -3.590  17.367  0.00  0.00    +0.238 C 
ATOM      8  O   GLU A   1      14.237  -3.230  18.475  0.00  0.00    -0.274 OA
ATOM      9  N   GLN A   2      13.894  -3.910  16.290  0.00  0.00    -0.297 N 
ATOM     10  H   GLN A   2      14.340  -4.120  15.374  0.00  0.00    +0.150 HD
BRANCH   7  11
ATOM     11  CA  GLU A   1      16.194  -3.720  17.220  0.00  0.00    +0.145 C 
BRANCH  11  12
ATOM     12  N   GLU A   1      16.912  -2.566  17.697  0.00  0.00    -0.238 NA
ATOM     13  H   GLU A   1      16.466  -1.979  18.431  0.00  0.00    +0.142 HD
ENDBRANCH  11  12
BRANCH  11  14
ATOM     14  CB  GLU A   1      16.724  -4.930  18.040  0.00  0.00    +0.038 C 
BRANCH  14  15
ATOM     15  CG  GLU A   1      16.397  -6.298  17.516  0.00  0.00    +0.116 C 
BRANCH  15  16
ATOM     16  CD  GLU A   1      17.089  -7.402  18.365  0.00  0.00    +0.365 C 
ATOM     17  OE2 GLU A   1      16.363  -8.353  18.717  0.00  0.00    -0.246 OA
ATOM     18  OE1 GLU A   1      18.335  -7.313  18.585  0.00  0.00    -0.246 OA
ENDBRANCH  15  16
ENDBRANCH  14  15
ENDBRANCH  11  14
ENDBRANCH   7  11
ENDBRANCH   6   9
BRANCH   6  19
ATOM     19  CB  GLN A   2      11.823  -2.602  16.068  0.00  0.00    +0.039 C 
BRANCH  19  20
ATOM     20  CG  GLN A   2      12.772  -1.533  15.711  0.00  0.00    +0.087 C 
BRANCH  20  21
ATOM     21  CD  GLN A   2      12.124  -0.182  15.475  0.00  0.00    +0.219 C 
ATOM     22  NE2 GLN A   2      10.755  -0.160  15.462  0.00  0.00    -0.329 N 
ATOM     23 HE21 GLN A   2      10.219  -1.025  15.675  0.00  0.00    +0.145 HD
ATOM     24 HE22 GLN A   2      10.251   0.722  15.239  0.00  0.00    +0.145 HD
ATOM     25  OE1 GLN A   2      12.849   0.836  15.225  0.00  0.00    -0.275 OA
ENDBRANCH  20  21
ENDBRANCH  19  20
ENDBRANCH   6  19
ENDBRANCH   2   6
ENDBRANCH   1   3
BRANCH   1  26
ATOM     26  C   PHE A   3       8.269  -5.264  14.868  0.00  0.00    +0.241 C 
ATOM     27  O   PHE A   3       7.787  -4.455  15.520  0.00  0.00    -0.273 OA
ATOM     28  N   ALA A   4       7.769  -5.638  13.683  0.00  0.00    -0.297 N 
ATOM     29  H   ALA A   4       8.259  -6.373  13.134  0.00  0.00    +0.150 HD
BRANCH  28  30
ATOM     30  CA  ALA A   4       6.597  -5.061  13.163  0.00  0.00    +0.149 C 
ATOM     31  CB  ALA A   4       6.943  -4.126  12.141  0.00  0.00    +0.031 C 
BRANCH  30  32
ATOM     32  C   ALA A   4       5.710  -6.199  12.648  0.00  0.00    +0.241 C 
ATOM     33  N   TYR A   5       4.403  -6.076  12.875  0.00  0.00    -0.298 N 
ATOM     34  H   TYR A   5       4.063  -5.266  13.431  0.00  0.00    +0.150 HD
ATOM     35  O   ALA A   4       6.220  -7.133  11.992  0.00  0.00    -0.273 OA
BRANCH  33  36
ATOM     36  CA  TYR A   5       3.468  -7.006  12.387  0.00  0.00    +0.141 C 
BRANCH  36  37
ATOM     37  C   TYR A   5       2.546  -6.321  11.388  0.00  0.00    +0.227 C 
ATOM     38  O   TYR A   5       1.888  -5.307  11.684  0.00  0.00    -0.286 OA
ENDBRANCH  36  37
BRANCH  36  39
ATOM     39  CB  TYR A   5       2.635  -7.581  13.523  0.00  0.00    +0.054 C 
BRANCH  39  40
ATOM     40  CG  TYR A   5       1.620  -8.648  13.174  0.00  0.00    -0.020 A 
ATOM     41  CD2 TYR A   5       0.318  -8.560  13.541  0.00  0.00    -0.001 A 
ATOM     42  CE2 TYR A   5      -0.616  -9.558  13.211  0.00  0.00    +0.036 A 
ATOM     43  CZ  TYR A   5      -0.207 -10.682  12.512  0.00  0.00    +0.134 A 
ATOM     44  CE1 TYR A   5       1.113 -10.789  12.047  0.00  0.00    +0.036 A 
ATOM     45  CD1 TYR A   5       2.004  -9.770  12.389  0.00  0.00    -0.001 A 
BRANCH  43  46
ATOM     46  OH  TYR A   5      -1.052 -11.704  12.194  0.00  0.00    -0.506 OA
ATOM     47  HH  TYR A   5      -0.554 -12.400  11.697  0.00  0.00    +0.292 HD
ENDBRANCH  43  46
ENDBRANCH  39  40
ENDBRANCH  36  39
ENDBRANCH  33  36
ENDBRANCH  30  32
ENDBRANCH  28  30
ENDBRANCH   1  26
BRANCH   1  48
ATOM     48  CB  PHE A   3       9.081  -7.093  16.308  0.00  0.00    +0.055 C 
BRANCH  48  49
ATOM     49  CG  PHE A   3      10.169  -7.994  16.671  0.00  0.00    -0.020 A 
ATOM     50  CD2 PHE A   3      10.935  -7.759  17.799  0.00  0.00    -0.004 A 
ATOM     51  CE2 PHE A   3      12.002  -8.632  18.170  0.00  0.00    -0.000 A 
ATOM     52  CZ  PHE A   3      12.300  -9.740  17.419  0.00  0.00    -0.000 A 
ATOM     53  CE1 PHE A   3      11.513  -9.988  16.265  0.00  0.00    -0.000 A 
ATOM     54  CD1 PHE A   3      10.439  -9.131  15.935  0.00  0.00    -0.004 A 
ENDBRANCH  48  49
ENDBRANCH   1  48
TORSDOF 21
REMARK  Name = ../refined-set-2016/3bzf/3bzf_pocket.pdb
REMARK  356 active torsions:
REMARK  status: ('A' for Active; 'I' for Inactive)
REMARK    1  A    between atoms: _1  and  _3
REMARK    2  A    between atoms: _3  and  _4
REMARK    3  A    between atoms: _3  and  _6
REMARK    4  A    between atoms: _6  and  _7
REMARK    5  A    between atoms: _10  and  _12
REMARK    6  A    between atoms: _12  and  _13
REMARK    7  A    between atoms: _12  and  _15
REMARK    8  A    between atoms: _15  and  _16
REMARK    9  A    between atoms: _16  and  _17
REMARK   10  A    between atoms: _17  and  _18
REMARK   11  A    between atoms: _18  and  _19
REMARK   12  A    between atoms: _23  and  _25
REMARK   13  A    between atoms: _25  and  _26
REMARK   14  A    between atoms: _25  and  _28
REMARK   15  A    between atoms: _28  and  _29
REMARK   16  A    between atoms: _34  and  _35
REMARK   17  A    between atoms: _37  and  _39
REMARK   18  A    between atoms: _39  and  _40
REMARK   19  A    between atoms: _39  and  _42
REMARK   20  A    between atoms: _42  and  _43
REMARK   21  A    between atoms: _49  and  _51
REMARK   22  A    between atoms: _51  and  _52
REMARK   23  A    between atoms: _51  and  _54
REMARK   24  A    between atoms: _54  and  _55
REMARK   25  A    between atoms: _60  and  _62
REMARK   26  A    between atoms: _62  and  _63
REMARK   27  A    between atoms: _62  and  _65
REMARK   28  A    between atoms: _65  and  _66
REMARK   29  A    between atoms: _72  and  _74
REMARK   30  A    between atoms: _74  and  _75
REMARK   31  A    between atoms: _74  and  _77
REMARK   32  A    between atoms: _77  and  _78
REMARK   33  A    between atoms: _81  and  _83
REMARK   34  A    between atoms: _83  and  _84
REMARK   35  A    between atoms: _83  and  _86
REMARK   36  A    between atoms: _86  and  _87
REMARK   37  A    between atoms: _89  and  _91
REMARK   38  A    between atoms: _91  and  _92
REMARK   39  A    between atoms: _91  and  _94
REMARK   40  A    between atoms: _97  and  _99
REMARK   41  A    between atoms: _99  and  _100
REMARK   42  A    between atoms: _102  and  _104
REMARK   43  A    between atoms: _104  and  _105
REMARK   44  A    between atoms: _104  and  _107
REMARK   45  A    between atoms: _107  and  _108
REMARK   46  A    between atoms: _114  and  _116
REMARK   47  A    between atoms: _116  and  _117
REMARK   48  A    between atoms: _116  and  _119
REMARK   49  A    between atoms: _122  and  _124
REMARK   50  A    between atoms: _124  and  _125
REMARK   51  A    between atoms: _124  and  _127
REMARK   52  A    between atoms: _127  and  _128
REMARK   53  A    between atoms: _128  and  _129
REMARK   54  A    between atoms: _129  and  _130
REMARK   55  A    between atoms: _139  and  _141
REMARK   56  A    between atoms: _141  and  _142
REMARK   57  A    between atoms: _141  and  _144
REMARK   58  A    between atoms: _144  and  _145
REMARK   59  A    between atoms: _151  and  _153
REMARK   60  A    between atoms: _153  and  _154
REMARK   61  A    between atoms: _153  and  _156
REMARK   62  A    between atoms: _156  and  _157
REMARK   63  A    between atoms: _157  and  _158
REMARK   64  A    between atoms: _160  and  _162
REMARK   65  A    between atoms: _162  and  _163
REMARK   66  A    between atoms: _162  and  _165
REMARK   67  A    between atoms: _165  and  _166
REMARK   68  A    between atoms: _171  and  _172
REMARK   69  A    between atoms: _174  and  _176
REMARK   70  A    between atoms: _176  and  _177
REMARK   71  A    between atoms: _176  and  _179
REMARK   72  A    between atoms: _179  and  _180
REMARK   73  A    between atoms: _180  and  _181
REMARK   74  A    between atoms: _181  and  _182
REMARK   75  A    between atoms: _191  and  _193
REMARK   76  A    between atoms: _193  and  _194
REMARK   77  A    between atoms: _193  and  _196
REMARK   78  A    between atoms: _196  and  _197
REMARK   79  A    between atoms: _197  and  _198
REMARK   80  A    between atoms: _201  and  _203
REMARK   81  A    between atoms: _203  and  _204
REMARK   82  A    between atoms: _203  and  _206
REMARK   83  A    between atoms: _206  and  _207
REMARK   84  A    between atoms: _210  and  _212
REMARK   85  A    between atoms: _212  and  _213
REMARK   86  A    between atoms: _212  and  _215
REMARK   87  A    between atoms: _215  and  _216
REMARK   88  A    between atoms: _216  and  _217
REMARK   89  A    between atoms: _217  and  _218
REMARK   90  A    between atoms: _227  and  _229
REMARK   91  A    between atoms: _229  and  _230
REMARK   92  A    between atoms: _229  and  _232
REMARK   93  A    between atoms: _232  and  _233
REMARK   94  A    between atoms: _235  and  _237
REMARK   95  A    between atoms: _237  and  _238
REMARK   96  A    between atoms: _241  and  _243
REMARK   97  A    between atoms: _243  and  _244
REMARK   98  A    between atoms: _243  and  _246
REMARK   99  A    between atoms: _246  and  _247
REMARK  100  A    between atoms: _247  and  _248
REMARK  101  A    between atoms: _248  and  _249
REMARK  102  A    between atoms: _258  and  _260
REMARK  103  A    between atoms: _260  and  _261
REMARK  104  A    between atoms: _260  and  _263
REMARK  105  A    between atoms: _263  and  _264
REMARK  106  A    between atoms: _267  and  _269
REMARK  107  A    between atoms: _269  and  _270
REMARK  108  A    between atoms: _269  and  _272
REMARK  109  A    between atoms: _272  and  _273
REMARK  110  A    between atoms: _276  and  _278
REMARK  111  A    between atoms: _278  and  _279
REMARK  112  A    between atoms: _282  and  _284
REMARK  113  A    between atoms: _284  and  _285
REMARK  114  A    between atoms: _284  and  _287
REMARK  115  A    between atoms: _287  and  _288
REMARK  116  A    between atoms: _288  and  _289
REMARK  117  A    between atoms: _294  and  _296
REMARK  118  A    between atoms: _296  and  _297
REMARK  119  A    between atoms: _296  and  _299
REMARK  120  A    between atoms: _299  and  _300
REMARK  121  A    between atoms: _303  and  _305
REMARK  122  A    between atoms: _305  and  _306
REMARK  123  A    between atoms: _305  and  _308
REMARK  124  A    between atoms: _308  and  _309
REMARK  125  A    between atoms: _315  and  _317
REMARK  126  A    between atoms: _317  and  _318
REMARK  127  A    between atoms: _317  and  _320
REMARK  128  A    between atoms: _320  and  _321
REMARK  129  A    between atoms: _321  and  _322
REMARK  130  A    between atoms: _322  and  _323
REMARK  131  A    between atoms: _332  and  _334
REMARK  132  A    between atoms: _334  and  _335
REMARK  133  A    between atoms: _334  and  _337
REMARK  134  A    between atoms: _340  and  _342
REMARK  135  A    between atoms: _342  and  _343
REMARK  136  A    between atoms: _342  and  _345
REMARK  137  A    between atoms: _345  and  _346
REMARK  138  A    between atoms: _351  and  _353
REMARK  139  A    between atoms: _353  and  _354
REMARK  140  A    between atoms: _353  and  _356
REMARK  141  A    between atoms: _356  and  _357
REMARK  142  A    between atoms: _360  and  _362
REMARK  143  A    between atoms: _362  and  _363
REMARK  144  A    between atoms: _362  and  _365
REMARK  145  A    between atoms: _365  and  _366
REMARK  146  A    between atoms: _366  and  _367
REMARK  147  A    between atoms: _367  and  _368
REMARK  148  A    between atoms: _377  and  _379
REMARK  149  A    between atoms: _379  and  _380
REMARK  150  A    between atoms: _379  and  _382
REMARK  151  A    between atoms: _382  and  _383
REMARK  152  A    between atoms: _386  and  _388
REMARK  153  A    between atoms: _388  and  _389
REMARK  154  A    between atoms: _388  and  _391
REMARK  155  A    between atoms: _391  and  _392
REMARK  156  A    between atoms: _395  and  _397
REMARK  157  A    between atoms: _397  and  _398
REMARK  158  A    between atoms: _397  and  _400
REMARK  159  A    between atoms: _400  and  _401
REMARK  160  A    between atoms: _406  and  _407
REMARK  161  A    between atoms: _409  and  _411
REMARK  162  A    between atoms: _411  and  _412
REMARK  163  A    between atoms: _411  and  _414
REMARK  164  A    between atoms: _414  and  _415
REMARK  165  A    between atoms: _420  and  _421
REMARK  166  A    between atoms: _423  and  _425
REMARK  167  A    between atoms: _425  and  _426
REMARK  168  A    between atoms: _425  and  _428
REMARK  169  A    between atoms: _428  and  _429
REMARK  170  A    between atoms: _432  and  _434
REMARK  171  A    between atoms: _434  and  _435
REMARK  172  A    between atoms: _434  and  _437
REMARK  173  A    between atoms: _437  and  _438
REMARK  174  A    between atoms: _438  and  _439
REMARK  175  A    between atoms: _444  and  _446
REMARK  176  A    between atoms: _446  and  _447
REMARK  177  A    between atoms: _446  and  _449
REMARK  178  A    between atoms: _449  and  _450
REMARK  179  A    between atoms: _460  and  _462
REMARK  180  A    between atoms: _462  and  _463
REMARK  181  A    between atoms: _462  and  _465
REMARK  182  A    between atoms: _465  and  _466
REMARK  183  A    between atoms: _466  and  _467
REMARK  184  A    between atoms: _469  and  _471
REMARK  185  A    between atoms: _471  and  _472
REMARK  186  A    between atoms: _471  and  _474
REMARK  187  A    between atoms: _474  and  _475
REMARK  188  A    between atoms: _480  and  _482
REMARK  189  A    between atoms: _482  and  _483
REMARK  190  A    between atoms: _485  and  _487
REMARK  191  A    between atoms: _487  and  _488
REMARK  192  A    between atoms: _487  and  _490
REMARK  193  A    between atoms: _490  and  _491
REMARK  194  A    between atoms: _491  and  _814
REMARK  195  A    between atoms: _492  and  _494
REMARK  196  A    between atoms: _494  and  _495
REMARK  197  A    between atoms: _494  and  _497
REMARK  198  A    between atoms: _497  and  _498
REMARK  199  A    between atoms: _498  and  _499
REMARK  200  A    between atoms: _502  and  _504
REMARK  201  A    between atoms: _504  and  _505
REMARK  202  A    between atoms: _504  and  _507
REMARK  203  A    between atoms: _507  and  _508
REMARK  204  A    between atoms: _508  and  _509
REMARK  205  A    between atoms: _514  and  _516
REMARK  206  A    between atoms: _516  and  _517
REMARK  207  A    between atoms: _516  and  _519
REMARK  208  A    between atoms: _519  and  _520
REMARK  209  A    between atoms: _526  and  _528
REMARK  210  A    between atoms: _528  and  _529
REMARK  211  A    between atoms: _532  and  _534
REMARK  212  A    between atoms: _534  and  _535
REMARK  213  A    between atoms: _534  and  _537
REMARK  214  A    between atoms: _537  and  _538
REMARK  215  A    between atoms: _543  and  _544
REMARK  216  A    between atoms: _546  and  _548
REMARK  217  A    between atoms: _548  and  _549
REMARK  218  A    between atoms: _548  and  _551
REMARK  219  A    between atoms: _551  and  _552
REMARK  220  A    between atoms: _557  and  _558
REMARK  221  A    between atoms: _560  and  _562
REMARK  222  A    between atoms: _562  and  _563
REMARK  223  A    between atoms: _562  and  _565
REMARK  224  A    between atoms: _565  and  _566
REMARK  225  A    between atoms: _569  and  _571
REMARK  226  A    between atoms: _571  and  _572
REMARK  227  A    between atoms: _571  and  _574
REMARK  228  A    between atoms: _574  and  _575
REMARK  229  A    between atoms: _578  and  _580
REMARK  230  A    between atoms: _580  and  _581
REMARK  231  A    between atoms: _580  and  _583
REMARK  232  A    between atoms: _583  and  _584
REMARK  233  A    between atoms: _587  and  _589
REMARK  234  A    between atoms: _589  and  _590
REMARK  235  A    between atoms: _589  and  _592
REMARK  236  A    between atoms: _592  and  _593
REMARK  237  A    between atoms: _603  and  _605
REMARK  238  A    between atoms: _605  and  _606
REMARK  239  A    between atoms: _605  and  _608
REMARK  240  A    between atoms: _608  and  _609
REMARK  241  A    between atoms: _612  and  _614
REMARK  242  A    between atoms: _614  and  _615
REMARK  243  A    between atoms: _618  and  _620
REMARK  244  A    between atoms: _620  and  _621
REMARK  245  A    between atoms: _624  and  _626
REMARK  246  A    between atoms: _626  and  _627
REMARK  247  A    between atoms: _626  and  _629
REMARK  248  A    between atoms: _629  and  _630
REMARK  249  A    between atoms: _630  and  _631
REMARK  250  A    between atoms: _636  and  _638
REMARK  251  A    between atoms: _638  and  _639
REMARK  252  A    between atoms: _638  and  _641
REMARK  253  A    between atoms: _641  and  _642
REMARK  254  A    between atoms: _645  and  _647
REMARK  255  A    between atoms: _647  and  _648
REMARK  256  A    between atoms: _647  and  _650
REMARK  257  A    between atoms: _650  and  _651
REMARK  258  A    between atoms: _653  and  _655
REMARK  259  A    between atoms: _655  and  _656
REMARK  260  A    between atoms: _655  and  _658
REMARK  261  A    between atoms: _658  and  _659
REMARK  262  A    between atoms: _659  and  _660
REMARK  263  A    between atoms: _663  and  _665
REMARK  264  A    between atoms: _665  and  _666
REMARK  265  A    between atoms: _665  and  _668
REMARK  266  A    between atoms: _668  and  _669
REMARK  267  A    between atoms: _669  and  _670
REMARK  268  A    between atoms: _675  and  _677
REMARK  269  A    between atoms: _677  and  _678
REMARK  270  A    between atoms: _677  and  _680
REMARK  271  A    between atoms: _680  and  _681
REMARK  272  A    between atoms: _681  and  _682
REMARK  273  A    between atoms: _682  and  _683
REMARK  274  A    between atoms: _683  and  _684
REMARK  275  A    between atoms: _688  and  _690
REMARK  276  A    between atoms: _690  and  _691
REMARK  277  A    between atoms: _690  and  _693
REMARK  278  A    between atoms: _693  and  _694
REMARK  279  A    between atoms: _696  and  _698
REMARK  280  A    between atoms: _698  and  _699
REMARK  281  A    between atoms: _698  and  _701
REMARK  282  A    between atoms: _701  and  _702
REMARK  283  A    between atoms: _707  and  _709
REMARK  284  A    between atoms: _709  and  _710
REMARK  285  A    between atoms: _713  and  _715
REMARK  286  A    between atoms: _715  and  _716
REMARK  287  A    between atoms: _715  and  _718
REMARK  288  A    between atoms: _718  and  _719
REMARK  289  A    between atoms: _721  and  _723
REMARK  290  A    between atoms: _723  and  _724
REMARK  291  A    between atoms: _723  and  _726
REMARK  292  A    between atoms: _726  and  _727
REMARK  293  A    between atoms: _727  and  _728
REMARK  294  A    between atoms: _731  and  _733
REMARK  295  A    between atoms: _733  and  _734
REMARK  296  A    between atoms: _737  and  _739
REMARK  297  A    between atoms: _739  and  _740
REMARK  298  A    between atoms: _739  and  _742
REMARK  299  A    between atoms: _742  and  _743
REMARK  300  A    between atoms: _743  and  _744
REMARK  301  A    between atoms: _747  and  _749
REMARK  302  A    between atoms: _749  and  _750
REMARK  303  A    between atoms: _749  and  _752
REMARK  304  A    between atoms: _752  and  _753
REMARK  305  A    between atoms: _758  and  _760
REMARK  306  A    between atoms: _760  and  _761
REMARK  307  A    between atoms: _760  and  _763
REMARK  308  A    between atoms: _763  and  _764
REMARK  309  A    between atoms: _764  and  _765
REMARK  310  A    between atoms: _770  and  _772
REMARK  311  A    between atoms: _772  and  _773
REMARK  312  A    between atoms: _776  and  _778
REMARK  313  A    between atoms: _778  and  _779
REMARK  314  A    between atoms: _778  and  _781
REMARK  315  A    between atoms: _781  and  _782
REMARK  316  A    between atoms: _787  and  _788
REMARK  317  A    between atoms: _790  and  _792
REMARK  318  A    between atoms: _792  and  _793
REMARK  319  A    between atoms: _792  and  _795
REMARK  320  A    between atoms: _795  and  _796
REMARK  321  A    between atoms: _799  and  _801
REMARK  322  A    between atoms: _801  and  _802
REMARK  323  A    between atoms: _801  and  _804
REMARK  324  A    between atoms: _804  and  _805
REMARK  325  A    between atoms: _808  and  _810
REMARK  326  A    between atoms: _810  and  _811
REMARK  327  A    between atoms: _810  and  _813
REMARK  328  A    between atoms: _813  and  _814
REMARK  329  A    between atoms: _815  and  _817
REMARK  330  A    between atoms: _817  and  _818
REMARK  331  A    between atoms: _817  and  _820
REMARK  332  A    between atoms: _823  and  _825
REMARK  333  A    between atoms: _825  and  _826
REMARK  334  A    between atoms: _825  and  _828
REMARK  335  A    between atoms: _828  and  _829
REMARK  336  A    between atoms: _829  and  _830
REMARK  337  A    between atoms: _833  and  _835
REMARK  338  A    between atoms: _835  and  _836
REMARK  339  A    between atoms: _835  and  _838
REMARK  340  A    between atoms: _838  and  _839
REMARK  341  A    between atoms: _849  and  _851
REMARK  342  A    between atoms: _851  and  _852
REMARK  343  A    between atoms: _851  and  _854
REMARK  344  A    between atoms: _854  and  _855
REMARK  345  A    between atoms: _858  and  _860
REMARK  346  A    between atoms: _860  and  _861
REMARK  347  A    between atoms: _860  and  _863
REMARK  348  A    between atoms: _863  and  _864
REMARK  349  A    between atoms: _864  and  _865
REMARK  350  A    between atoms: _865  and  _866
REMARK  351  A    between atoms: _866  and  _867
REMARK  352  A    between atoms: _871  and  _873
REMARK  353  A    between atoms: _873  and  _874
REMARK  354  A    between atoms: _873  and  _876
REMARK  355  A    between atoms: _876  and  _877
REMARK  356  A    between atoms: _882  and  _883
REMARK                            x       y       z     vdW  Elec       q    Type
REMARK                         _______ _______ _______ _____ _____    ______ ____
ROOT
ATOM      1  CA  LEU A   2       7.807  -4.478  19.830  0.00  0.00    +0.149 C 
ENDROOT
BRANCH   1   4
ATOM      2  C   TYR A   1       5.591  -4.286  18.748  0.00  0.00    +0.239 C 
ATOM      3  O   TYR A   1       4.997  -4.204  19.836  0.00  0.00    -0.274 OA
ATOM      4  N   LEU A   2       6.951  -4.371  18.660  0.00  0.00    -0.297 N 
ATOM      5  H   LEU A   2       7.392  -4.359  17.718  0.00  0.00    +0.150 HD
BRANCH   2   6
ATOM      6  CA  TYR A   1       4.764  -4.238  17.454  0.00  0.00    +0.149 C 
BRANCH   6   7
ATOM      7  N   TYR A   1       5.268  -3.247  16.531  0.00  0.00    -0.238 NA
ATOM      8  H   TYR A   1       6.281  -3.277  16.297  0.00  0.00    +0.142 HD
ENDBRANCH   6   7
BRANCH   6   9
ATOM      9  CB  TYR A   1       4.746  -5.585  16.735  0.00  0.00    +0.053 C 
BRANCH   9  10
ATOM     10  CG  TYR A   1       4.144  -6.661  17.605  0.00  0.00    -0.020 A 
ATOM     11  CD2 TYR A   1       4.945  -7.510  18.330  0.00  0.00    -0.001 A 
ATOM     12  CE2 TYR A   1       4.356  -8.553  19.169  0.00  0.00    +0.036 A 
ATOM     13  CZ  TYR A   1       2.994  -8.582  19.380  0.00  0.00    +0.134 A 
ATOM     14  CE1 TYR A   1       2.203  -7.749  18.663  0.00  0.00    +0.036 A 
ATOM     15  CD1 TYR A   1       2.758  -6.764  17.795  0.00  0.00    -0.001 A 
BRANCH  13  16
ATOM     16  OH  TYR A   1       2.505  -9.486  20.295  0.00  0.00    -0.506 OA
ATOM     17  HH  TYR A   1       3.258  -9.987  20.698  0.00  0.00    +0.292 HD
ENDBRANCH  13  16
ENDBRANCH   9  10
ENDBRANCH   6   9
ENDBRANCH   2   6
ENDBRANCH   1   4
BRANCH   1  18
ATOM     18  C   LEU A   2       9.129  -3.872  19.539  0.00  0.00    +0.241 C 
ATOM     19  N   THR A   3       9.557  -2.983  20.452  0.00  0.00    -0.295 N 
ATOM     20  H   THR A   3       8.981  -2.785  21.295  0.00  0.00    +0.150 HD
ATOM     21  O   LEU A   2       9.782  -4.201  18.534  0.00  0.00    -0.273 OA
BRANCH  19  22
ATOM     22  CA  THR A   3      10.796  -2.314  20.264  0.00  0.00    +0.176 C 
BRANCH  22  23
ATOM     23  C   THR A   3      11.727  -2.548  21.447  0.00  0.00    +0.243 C 
ATOM     24  O   THR A   3      11.324  -2.480  22.576  0.00  0.00    -0.273 OA
ATOM     25  N   LEU A   4      12.992  -2.713  21.179  0.00  0.00    -0.298 N 
ATOM     26  H   LEU A   4      13.306  -2.793  20.191  0.00  0.00    +0.150 HD
BRANCH  25  27
ATOM     27  CA  LEU A   4      13.975  -2.786  22.265  0.00  0.00    +0.137 C 
BRANCH  27  28
ATOM     28  C   LEU A   4      14.173  -1.318  22.624  0.00  0.00    +0.227 C 
ATOM     29  O   LEU A   4      14.170  -0.463  21.774  0.00  0.00    -0.286 OA
ENDBRANCH  27  28
BRANCH  27  30
ATOM     30  CB  LEU A   4      15.291  -3.336  21.741  0.00  0.00    +0.028 C 
BRANCH  30  31
ATOM     31  CG  LEU A   4      16.426  -3.460  22.687  0.00  0.00    +0.002 C 
ATOM     32  CD2 LEU A   4      16.056  -4.347  23.881  0.00  0.00    +0.000 C 
ATOM     33  CD1 LEU A   4      17.576  -4.015  21.932  0.00  0.00    +0.000 C 
ENDBRANCH  30  31
ENDBRANCH  27  30
ENDBRANCH  25  27
ENDBRANCH  22  23
BRANCH  22  34
ATOM     34  CB  THR A   3      10.592  -0.807  20.144  0.00  0.00    +0.137 C 
ATOM     35  CG2 THR A   3      11.977  -0.110  19.808  0.00  0.00    +0.034 C 
BRANCH  34  36
ATOM     36  OG1 THR A   3       9.693  -0.600  19.134  0.00  0.00    -0.382 OA
ATOM     37  HG1 THR A   3       9.536   0.372  19.028  0.00  0.00    +0.210 HD
ENDBRANCH  34  36
ENDBRANCH  22  34
ENDBRANCH  19  22
ENDBRANCH   1  18
BRANCH   1  38
ATOM     38  CB  LEU A   2       7.983  -5.955  20.305  0.00  0.00    +0.029 C 
BRANCH  38  39
ATOM     39  CG  LEU A   2       8.426  -6.228  21.736  0.00  0.00    +0.002 C 
ATOM     40  CD2 LEU A   2       7.256  -5.698  22.667  0.00  0.00    +0.000 C 
ATOM     41  CD1 LEU A   2       8.747  -7.718  21.978  0.00  0.00    +0.000 C 
ENDBRANCH  38  39
ENDBRANCH   1  38
TORSDOF 17
REMARK  Name = ../refined-set-2016/3bzf/3bzf_pocket.pdb
REMARK  356 active torsions:
REMARK  status: ('A' for Active; 'I' for Inactive)
REMARK    1  A    between atoms: _1  and  _3
REMARK    2  A    between atoms: _3  and  _4
REMARK    3  A    between atoms: _3  and  _6
REMARK    4  A    between atoms: _6  and  _7
REMARK    5  A    between atoms: _10  and  _12
REMARK    6  A    between atoms: _12  and  _13
REMARK    7  A    between atoms: _12  and  _15
REMARK    8  A    between atoms: _15  and  _16
REMARK    9  A    between atoms: _16  and  _17
REMARK   10  A    between atoms: _17  and  _18
REMARK   11  A    between atoms: _18  and  _19
REMARK   12  A    between atoms: _23  and  _25
REMARK   13  A    between atoms: _25  and  _26
REMARK   14  A    between atoms: _25  and  _28
REMARK   15  A    between atoms: _28  and  _29
REMARK   16  A    between atoms: _34  and  _35
REMARK   17  A    between atoms: _37  and  _39
REMARK   18  A    between atoms: _39  and  _40
REMARK   19  A    between atoms: _39  and  _42
REMARK   20  A    between atoms: _42  and  _43
REMARK   21  A    between atoms: _49  and  _51
REMARK   22  A    between atoms: _51  and  _52
REMARK   23  A    between atoms: _51  and  _54
REMARK   24  A    between atoms: _54  and  _55
REMARK   25  A    between atoms: _60  and  _62
REMARK   26  A    between atoms: _62  and  _63
REMARK   27  A    between atoms: _62  and  _65
REMARK   28  A    between atoms: _65  and  _66
REMARK   29  A    between atoms: _72  and  _74
REMARK   30  A    between atoms: _74  and  _75
REMARK   31  A    between atoms: _74  and  _77
REMARK   32  A    between atoms: _77  and  _78
REMARK   33  A    between atoms: _81  and  _83
REMARK   34  A    between atoms: _83  and  _84
REMARK   35  A    between atoms: _83  and  _86
REMARK   36  A    between atoms: _86  and  _87
REMARK   37  A    between atoms: _89  and  _91
REMARK   38  A    between atoms: _91  and  _92
REMARK   39  A    between atoms: _91  and  _94
REMARK   40  A    between atoms: _97  and  _99
REMARK   41  A    between atoms: _99  and  _100
REMARK   42  A    between atoms: _102  and  _104
REMARK   43  A    between atoms: _104  and  _105
REMARK   44  A    between atoms: _104  and  _107
REMARK   45  A    between atoms: _107  and  _108
REMARK   46  A    between atoms: _114  and  _116
REMARK   47  A    between atoms: _116  and  _117
REMARK   48  A    between atoms: _116  and  _119
REMARK   49  A    between atoms: _122  and  _124
REMARK   50  A    between atoms: _124  and  _125
REMARK   51  A    between atoms: _124  and  _127
REMARK   52  A    between atoms: _127  and  _128
REMARK   53  A    between atoms: _128  and  _129
REMARK   54  A    between atoms: _129  and  _130
REMARK   55  A    between atoms: _139  and  _141
REMARK   56  A    between atoms: _141  and  _142
REMARK   57  A    between atoms: _141  and  _144
REMARK   58  A    between atoms: _144  and  _145
REMARK   59  A    between atoms: _151  and  _153
REMARK   60  A    between atoms: _153  and  _154
REMARK   61  A    between atoms: _153  and  _156
REMARK   62  A    between atoms: _156  and  _157
REMARK   63  A    between atoms: _157  and  _158
REMARK   64  A    between atoms: _160  and  _162
REMARK   65  A    between atoms: _162  and  _163
REMARK   66  A    between atoms: _162  and  _165
REMARK   67  A    between atoms: _165  and  _166
REMARK   68  A    between atoms: _171  and  _172
REMARK   69  A    between atoms: _174  and  _176
REMARK   70  A    between atoms: _176  and  _177
REMARK   71  A    between atoms: _176  and  _179
REMARK   72  A    between atoms: _179  and  _180
REMARK   73  A    between atoms: _180  and  _181
REMARK   74  A    between atoms: _181  and  _182
REMARK   75  A    between atoms: _191  and  _193
REMARK   76  A    between atoms: _193  and  _194
REMARK   77  A    between atoms: _193  and  _196
REMARK   78  A    between atoms: _196  and  _197
REMARK   79  A    between atoms: _197  and  _198
REMARK   80  A    between atoms: _201  and  _203
REMARK   81  A    between atoms: _203  and  _204
REMARK   82  A    between atoms: _203  and  _206
REMARK   83  A    between atoms: _206  and  _207
REMARK   84  A    between atoms: _210  and  _212
REMARK   85  A    between atoms: _212  and  _213
REMARK   86  A    between atoms: _212  and  _215
REMARK   87  A    between atoms: _215  and  _216
REMARK   88  A    between atoms: _216  and  _217
REMARK   89  A    between atoms: _217  and  _218
REMARK   90  A    between atoms: _227  and  _229
REMARK   91  A    between atoms: _229  and  _230
REMARK   92  A    between atoms: _229  and  _232
REMARK   93  A    between atoms: _232  and  _233
REMARK   94  A    between atoms: _235  and  _237
REMARK   95  A    between atoms: _237  and  _238
REMARK   96  A    between atoms: _241  and  _243
REMARK   97  A    between atoms: _243  and  _244
REMARK   98  A    between atoms: _243  and  _246
REMARK   99  A    between atoms: _246  and  _247
REMARK  100  A    between atoms: _247  and  _248
REMARK  101  A    between atoms: _248  and  _249
REMARK  102  A    between atoms: _258  and  _260
REMARK  103  A    between atoms: _260  and  _261
REMARK  104  A    between atoms: _260  and  _263
REMARK  105  A    between atoms: _263  and  _264
REMARK  106  A    between atoms: _267  and  _269
REMARK  107  A    between atoms: _269  and  _270
REMARK  108  A    between atoms: _269  and  _272
REMARK  109  A    between atoms: _272  and  _273
REMARK  110  A    between atoms: _276  and  _278
REMARK  111  A    between atoms: _278  and  _279
REMARK  112  A    between atoms: _282  and  _284
REMARK  113  A    between atoms: _284  and  _285
REMARK  114  A    between atoms: _284  and  _287
REMARK  115  A    between atoms: _287  and  _288
REMARK  116  A    between atoms: _288  and  _289
REMARK  117  A    between atoms: _294  and  _296
REMARK  118  A    between atoms: _296  and  _297
REMARK  119  A    between atoms: _296  and  _299
REMARK  120  A    between atoms: _299  and  _300
REMARK  121  A    between atoms: _303  and  _305
REMARK  122  A    between atoms: _305  and  _306
REMARK  123  A    between atoms: _305  and  _308
REMARK  124  A    between atoms: _308  and  _309
REMARK  125  A    between atoms: _315  and  _317
REMARK  126  A    between atoms: _317  and  _318
REMARK  127  A    between atoms: _317  and  _320
REMARK  128  A    between atoms: _320  and  _321
REMARK  129  A    between atoms: _321  and  _322
REMARK  130  A    between atoms: _322  and  _323
REMARK  131  A    between atoms: _332  and  _334
REMARK  132  A    between atoms: _334  and  _335
REMARK  133  A    between atoms: _334  and  _337
REMARK  134  A    between atoms: _340  and  _342
REMARK  135  A    between atoms: _342  and  _343
REMARK  136  A    between atoms: _342  and  _345
REMARK  137  A    between atoms: _345  and  _346
REMARK  138  A    between atoms: _351  and  _353
REMARK  139  A    between atoms: _353  and  _354
REMARK  140  A    between atoms: _353  and  _356
REMARK  141  A    between atoms: _356  and  _357
REMARK  142  A    between atoms: _360  and  _362
REMARK  143  A    between atoms: _362  and  _363
REMARK  144  A    between atoms: _362  and  _365
REMARK  145  A    between atoms: _365  and  _366
REMARK  146  A    between atoms: _366  and  _367
REMARK  147  A    between atoms: _367  and  _368
REMARK  148  A    between atoms: _377  and  _379
REMARK  149  A    between atoms: _379  and  _380
REMARK  150  A    between atoms: _379  and  _382
REMARK  151  A    between atoms: _382  and  _383
REMARK  152  A    between atoms: _386  and  _388
REMARK  153  A    between atoms: _388  and  _389
REMARK  154  A    between atoms: _388  and  _391
REMARK  155  A    between atoms: _391  and  _392
REMARK  156  A    between atoms: _395  and  _397
REMARK  157  A    between atoms: _397  and  _398
REMARK  158  A    between atoms: _397  and  _400
REMARK  159  A    between atoms: _400  and  _401
REMARK  160  A    between atoms: _406  and  _407
REMARK  161  A    between atoms: _409  and  _411
REMARK  162  A    between atoms: _411  and  _412
REMARK  163  A    between atoms: _411  and  _414
REMARK  164  A    between atoms: _414  and  _415
REMARK  165  A    between atoms: _420  and  _421
REMARK  166  A    between atoms: _423  and  _425
REMARK  167  A    between atoms: _425  and  _426
REMARK  168  A    between atoms: _425  and  _428
REMARK  169  A    between atoms: _428  and  _429
REMARK  170  A    between atoms: _432  and  _434
REMARK  171  A    between atoms: _434  and  _435
REMARK  172  A    between atoms: _434  and  _437
REMARK  173  A    between atoms: _437  and  _438
REMARK  174  A    between atoms: _438  and  _439
REMARK  175  A    between atoms: _444  and  _446
REMARK  176  A    between atoms: _446  and  _447
REMARK  177  A    between atoms: _446  and  _449
REMARK  178  A    between atoms: _449  and  _450
REMARK  179  A    between atoms: _460  and  _462
REMARK  180  A    between atoms: _462  and  _463
REMARK  181  A    between atoms: _462  and  _465
REMARK  182  A    between atoms: _465  and  _466
REMARK  183  A    between atoms: _466  and  _467
REMARK  184  A    between atoms: _469  and  _471
REMARK  185  A    between atoms: _471  and  _472
REMARK  186  A    between atoms: _471  and  _474
REMARK  187  A    between atoms: _474  and  _475
REMARK  188  A    between atoms: _480  and  _482
REMARK  189  A    between atoms: _482  and  _483
REMARK  190  A    between atoms: _485  and  _487
REMARK  191  A    between atoms: _487  and  _488
REMARK  192  A    between atoms: _487  and  _490
REMARK  193  A    between atoms: _490  and  _491
REMARK  194  A    between atoms: _491  and  _814
REMARK  195  A    between atoms: _492  and  _494
REMARK  196  A    between atoms: _494  and  _495
REMARK  197  A    between atoms: _494  and  _497
REMARK  198  A    between atoms: _497  and  _498
REMARK  199  A    between atoms: _498  and  _499
REMARK  200  A    between atoms: _502  and  _504
REMARK  201  A    between atoms: _504  and  _505
REMARK  202  A    between atoms: _504  and  _507
REMARK  203  A    between atoms: _507  and  _508
REMARK  204  A    between atoms: _508  and  _509
REMARK  205  A    between atoms: _514  and  _516
REMARK  206  A    between atoms: _516  and  _517
REMARK  207  A    between atoms: _516  and  _519
REMARK  208  A    between atoms: _519  and  _520
REMARK  209  A    between atoms: _526  and  _528
REMARK  210  A    between atoms: _528  and  _529
REMARK  211  A    between atoms: _532  and  _534
REMARK  212  A    between atoms: _534  and  _535
REMARK  213  A    between atoms: _534  and  _537
REMARK  214  A    between atoms: _537  and  _538
REMARK  215  A    between atoms: _543  and  _544
REMARK  216  A    between atoms: _546  and  _548
REMARK  217  A    between atoms: _548  and  _549
REMARK  218  A    between atoms: _548  and  _551
REMARK  219  A    between atoms: _551  and  _552
REMARK  220  A    between atoms: _557  and  _558
REMARK  221  A    between atoms: _560  and  _562
REMARK  222  A    between atoms: _562  and  _563
REMARK  223  A    between atoms: _562  and  _565
REMARK  224  A    between atoms: _565  and  _566
REMARK  225  A    between atoms: _569  and  _571
REMARK  226  A    between atoms: _571  and  _572
REMARK  227  A    between atoms: _571  and  _574
REMARK  228  A    between atoms: _574  and  _575
REMARK  229  A    between atoms: _578  and  _580
REMARK  230  A    between atoms: _580  and  _581
REMARK  231  A    between atoms: _580  and  _583
REMARK  232  A    between atoms: _583  and  _584
REMARK  233  A    between atoms: _587  and  _589
REMARK  234  A    between atoms: _589  and  _590
REMARK  235  A    between atoms: _589  and  _592
REMARK  236  A    between atoms: _592  and  _593
REMARK  237  A    between atoms: _603  and  _605
REMARK  238  A    between atoms: _605  and  _606
REMARK  239  A    between atoms: _605  and  _608
REMARK  240  A    between atoms: _608  and  _609
REMARK  241  A    between atoms: _612  and  _614
REMARK  242  A    between atoms: _614  and  _615
REMARK  243  A    between atoms: _618  and  _620
REMARK  244  A    between atoms: _620  and  _621
REMARK  245  A    between atoms: _624  and  _626
REMARK  246  A    between atoms: _626  and  _627
REMARK  247  A    between atoms: _626  and  _629
REMARK  248  A    between atoms: _629  and  _630
REMARK  249  A    between atoms: _630  and  _631
REMARK  250  A    between atoms: _636  and  _638
REMARK  251  A    between atoms: _638  and  _639
REMARK  252  A    between atoms: _638  and  _641
REMARK  253  A    between atoms: _641  and  _642
REMARK  254  A    between atoms: _645  and  _647
REMARK  255  A    between atoms: _647  and  _648
REMARK  256  A    between atoms: _647  and  _650
REMARK  257  A    between atoms: _650  and  _651
REMARK  258  A    between atoms: _653  and  _655
REMARK  259  A    between atoms: _655  and  _656
REMARK  260  A    between atoms: _655  and  _658
REMARK  261  A    between atoms: _658  and  _659
REMARK  262  A    between atoms: _659  and  _660
REMARK  263  A    between atoms: _663  and  _665
REMARK  264  A    between atoms: _665  and  _666
REMARK  265  A    between atoms: _665  and  _668
REMARK  266  A    between atoms: _668  and  _669
REMARK  267  A    between atoms: _669  and  _670
REMARK  268  A    between atoms: _675  and  _677
REMARK  269  A    between atoms: _677  and  _678
REMARK  270  A    between atoms: _677  and  _680
REMARK  271  A    between atoms: _680  and  _681
REMARK  272  A    between atoms: _681  and  _682
REMARK  273  A    between atoms: _682  and  _683
REMARK  274  A    between atoms: _683  and  _684
REMARK  275  A    between atoms: _688  and  _690
REMARK  276  A    between atoms: _690  and  _691
REMARK  277  A    between atoms: _690  and  _693
REMARK  278  A    between atoms: _693  and  _694
REMARK  279  A    between atoms: _696  and  _698
REMARK  280  A    between atoms: _698  and  _699
REMARK  281  A    between atoms: _698  and  _701
REMARK  282  A    between atoms: _701  and  _702
REMARK  283  A    between atoms: _707  and  _709
REMARK  284  A    between atoms: _709  and  _710
REMARK  285  A    between atoms: _713  and  _715
REMARK  286  A    between atoms: _715  and  _716
REMARK  287  A    between atoms: _715  and  _718
REMARK  288  A    between atoms: _718  and  _719
REMARK  289  A    between atoms: _721  and  _723
REMARK  290  A    between atoms: _723  and  _724
REMARK  291  A    between atoms: _723  and  _726
REMARK  292  A    between atoms: _726  and  _727
REMARK  293  A    between atoms: _727  and  _728
REMARK  294  A    between atoms: _731  and  _733
REMARK  295  A    between atoms: _733  and  _734
REMARK  296  A    between atoms: _737  and  _739
REMARK  297  A    between atoms: _739  and  _740
REMARK  298  A    between atoms: _739  and  _742
REMARK  299  A    between atoms: _742  and  _743
REMARK  300  A    between atoms: _743  and  _744
REMARK  301  A    between atoms: _747  and  _749
REMARK  302  A    between atoms: _749  and  _750
REMARK  303  A    between atoms: _749  and  _752
REMARK  304  A    between atoms: _752  and  _753
REMARK  305  A    between atoms: _758  and  _760
REMARK  306  A    between atoms: _760  and  _761
REMARK  307  A    between atoms: _760  and  _763
REMARK  308  A    between atoms: _763  and  _764
REMARK  309  A    between atoms: _764  and  _765
REMARK  310  A    between atoms: _770  and  _772
REMARK  311  A    between atoms: _772  and  _773
REMARK  312  A    between atoms: _776  and  _778
REMARK  313  A    between atoms: _778  and  _779
REMARK  314  A    between atoms: _778  and  _781
REMARK  315  A    between atoms: _781  and  _782
REMARK  316  A    between atoms: _787  and  _788
REMARK  317  A    between atoms: _790  and  _792
REMARK  318  A    between atoms: _792  and  _793
REMARK  319  A    between atoms: _792  and  _795
REMARK  320  A    between atoms: _795  and  _796
REMARK  321  A    between atoms: _799  and  _801
REMARK  322  A    between atoms: _801  and  _802
REMARK  323  A    between atoms: _801  and  _804
REMARK  324  A    between atoms: _804  and  _805
REMARK  325  A    between atoms: _808  and  _810
REMARK  326  A    between atoms: _810  and  _811
REMARK  327  A    between atoms: _810  and  _813
REMARK  328  A    between atoms: _813  and  _814
REMARK  329  A    between atoms: _815  and  _817
REMARK  330  A    between atoms: _817  and  _818
REMARK  331  A    between atoms: _817  and  _820
REMARK  332  A    between atoms: _823  and  _825
REMARK  333  A    between atoms: _825  and  _826
REMARK  334  A    between atoms: _825  and  _828
REMARK  335  A    between atoms: _828  and  _829
REMARK  336  A    between atoms: _829  and  _830
REMARK  337  A    between atoms: _833  and  _835
REMARK  338  A    between atoms: _835  and  _836
REMARK  339  A    between atoms: _835  and  _838
REMARK  340  A    between atoms: _838  and  _839
REMARK  341  A    between atoms: _849  and  _851
REMARK  342  A    between atoms: _851  and  _852
REMARK  343  A    between atoms: _851  and  _854
REMARK  344  A    between atoms: _854  and  _855
REMARK  345  A    between atoms: _858  and  _860
REMARK  346  A    between atoms: _860  and  _861
REMARK  347  A    between atoms: _860  and  _863
REMARK  348  A    between atoms: _863  and  _864
REMARK  349  A    between atoms: _864  and  _865
REMARK  350  A    between atoms: _865  and  _866
REMARK  351  A    between atoms: _866  and  _867
REMARK  352  A    between atoms: _871  and  _873
REMARK  353  A    between atoms: _873  and  _874
REMARK  354  A    between atoms: _873  and  _876
REMARK  355  A    between atoms: _876  and  _877
REMARK  356  A    between atoms: _882  and  _883
REMARK                            x       y       z     vdW  Elec       q    Type
REMARK                         _______ _______ _______ _____ _____    ______ ____
ROOT
ATOM      1  CA  TRP A   1      11.288  -4.176  25.586  0.00  0.00    +0.149 C 
ENDROOT
BRANCH   1   2
ATOM      2  C   TRP A   1      10.053  -3.374  25.875  0.00  0.00    +0.239 C 
ATOM      3  O   TRP A   1       9.595  -3.347  27.046  0.00  0.00    -0.274 OA
ATOM      4  N   THR A   2       9.489  -2.731  24.850  0.00  0.00    -0.296 N 
ATOM      5  H   THR A   2       9.928  -2.801  23.910  0.00  0.00    +0.150 HD
BRANCH   4   6
ATOM      6  CA  THR A   2       8.253  -1.917  25.008  0.00  0.00    +0.164 C 
BRANCH   6   7
ATOM      7  CB  THR A   2       8.473  -0.437  24.835  0.00  0.00    +0.136 C 
ATOM      8  CG2 THR A   2       7.128   0.382  24.860  0.00  0.00    +0.034 C 
BRANCH   7   9
ATOM      9  OG1 THR A   2       9.321   0.006  25.855  0.00  0.00    -0.382 OA
ATOM     10  HG1 THR A   2      10.185  -0.474  25.796  0.00  0.00    +0.210 HD
ENDBRANCH   7   9
ENDBRANCH   6   7
BRANCH   6  11
ATOM     11  C   THR A   2       7.219  -2.330  23.984  0.00  0.00    +0.229 C 
ATOM     12  O   THR A   2       7.434  -2.272  22.798  0.00  0.00    -0.286 OA
ENDBRANCH   6  11
ENDBRANCH   4   6
ENDBRANCH   1   2
BRANCH   1  13
ATOM     13  N   TRP A   1      12.137  -4.260  26.756  0.00  0.00    -0.238 NA
ATOM     14  H   TRP A   1      11.825  -4.852  27.552  0.00  0.00    +0.142 HD
ENDBRANCH   1  13
BRANCH   1  15
ATOM     15  CB  TRP A   1      10.911  -5.546  25.032  0.00  0.00    +0.054 C 
BRANCH  15  16
ATOM     16  CG  TRP A   1      12.070  -6.367  24.710  0.00  0.00    -0.002 A 
ATOM     17  CD1 TRP A   1      12.764  -7.173  25.585  0.00  0.00    +0.068 A 
ATOM     18  NE1 TRP A   1      13.760  -7.788  24.934  0.00  0.00    -0.352 N 
ATOM     19  HE1 TRP A   1      14.442  -8.443  25.367  0.00  0.00    +0.166 HD
ATOM     20  CE2 TRP A   1      13.746  -7.424  23.610  0.00  0.00    +0.056 A 
ATOM     21  CZ2 TRP A   1      14.542  -7.842  22.577  0.00  0.00    +0.017 A 
ATOM     22  CH2 TRP A   1      14.313  -7.298  21.350  0.00  0.00    +0.001 A 
ATOM     23  CZ3 TRP A   1      13.218  -6.394  21.143  0.00  0.00    +0.000 A 
ATOM     24  CE3 TRP A   1      12.369  -6.104  22.124  0.00  0.00    +0.001 A 
ATOM     25  CD2 TRP A   1      12.661  -6.572  23.424  0.00  0.00    +0.013 A 
ENDBRANCH  15  16
ENDBRANCH   1  15
TORSDOF 8
REMARK  Name = ../refined-set-2016/3bzf/3bzf_pocket.pdb
REMARK  356 active torsions:
REMARK  status: ('A' for Active; 'I' for Inactive)
REMARK    1  A    between atoms: _1  and  _3
REMARK    2  A    between atoms: _3  and  _4
REMARK    3  A    between atoms: _3  and  _6
REMARK    4  A    between atoms: _6  and  _7
REMARK    5  A    between atoms: _10  and  _12
REMARK    6  A    between atoms: _12  and  _13
REMARK    7  A    between atoms: _12  and  _15
REMARK    8  A    between atoms: _15  and  _16
REMARK    9  A    between atoms: _16  and  _17
REMARK   10  A    between atoms: _17  and  _18
REMARK   11  A    between atoms: _18  and  _19
REMARK   12  A    between atoms: _23  and  _25
REMARK   13  A    between atoms: _25  and  _26
REMARK   14  A    between atoms: _25  and  _28
REMARK   15  A    between atoms: _28  and  _29
REMARK   16  A    between atoms: _34  and  _35
REMARK   17  A    between atoms: _37  and  _39
REMARK   18  A    between atoms: _39  and  _40
REMARK   19  A    between atoms: _39  and  _42
REMARK   20  A    between atoms: _42  and  _43
REMARK   21  A    between atoms: _49  and  _51
REMARK   22  A    between atoms: _51  and  _52
REMARK   23  A    between atoms: _51  and  _54
REMARK   24  A    between atoms: _54  and  _55
REMARK   25  A    between atoms: _60  and  _62
REMARK   26  A    between atoms: _62  and  _63
REMARK   27  A    between atoms: _62  and  _65
REMARK   28  A    between atoms: _65  and  _66
REMARK   29  A    between atoms: _72  and  _74
REMARK   30  A    between atoms: _74  and  _75
REMARK   31  A    between atoms: _74  and  _77
REMARK   32  A    between atoms: _77  and  _78
REMARK   33  A    between atoms: _81  and  _83
REMARK   34  A    between atoms: _83  and  _84
REMARK   35  A    between atoms: _83  and  _86
REMARK   36  A    between atoms: _86  and  _87
REMARK   37  A    between atoms: _89  and  _91
REMARK   38  A    between atoms: _91  and  _92
REMARK   39  A    between atoms: _91  and  _94
REMARK   40  A    between atoms: _97  and  _99
REMARK   41  A    between atoms: _99  and  _100
REMARK   42  A    between atoms: _102  and  _104
REMARK   43  A    between atoms: _104  and  _105
REMARK   44  A    between atoms: _104  and  _107
REMARK   45  A    between atoms: _107  and  _108
REMARK   46  A    between atoms: _114  and  _116
REMARK   47  A    between atoms: _116  and  _117
REMARK   48  A    between atoms: _116  and  _119
REMARK   49  A    between atoms: _122  and  _124
REMARK   50  A    between atoms: _124  and  _125
REMARK   51  A    between atoms: _124  and  _127
REMARK   52  A    between atoms: _127  and  _128
REMARK   53  A    between atoms: _128  and  _129
REMARK   54  A    between atoms: _129  and  _130
REMARK   55  A    between atoms: _139  and  _141
REMARK   56  A    between atoms: _141  and  _142
REMARK   57  A    between atoms: _141  and  _144
REMARK   58  A    between atoms: _144  and  _145
REMARK   59  A    between atoms: _151  and  _153
REMARK   60  A    between atoms: _153  and  _154
REMARK   61  A    between atoms: _153  and  _156
REMARK   62  A    between atoms: _156  and  _157
REMARK   63  A    between atoms: _157  and  _158
REMARK   64  A    between atoms: _160  and  _162
REMARK   65  A    between atoms: _162  and  _163
REMARK   66  A    between atoms: _162  and  _165
REMARK   67  A    between atoms: _165  and  _166
REMARK   68  A    between atoms: _171  and  _172
REMARK   69  A    between atoms: _174  and  _176
REMARK   70  A    between atoms: _176  and  _177
REMARK   71  A    between atoms: _176  and  _179
REMARK   72  A    between atoms: _179  and  _180
REMARK   73  A    between atoms: _180  and  _181
REMARK   74  A    between atoms: _181  and  _182
REMARK   75  A    between atoms: _191  and  _193
REMARK   76  A    between atoms: _193  and  _194
REMARK   77  A    between atoms: _193  and  _196
REMARK   78  A    between atoms: _196  and  _197
REMARK   79  A    between atoms: _197  and  _198
REMARK   80  A    between atoms: _201  and  _203
REMARK   81  A    between atoms: _203  and  _204
REMARK   82  A    between atoms: _203  and  _206
REMARK   83  A    between atoms: _206  and  _207
REMARK   84  A    between atoms: _210  and  _212
REMARK   85  A    between atoms: _212  and  _213
REMARK   86  A    between atoms: _212  and  _215
REMARK   87  A    between atoms: _215  and  _216
REMARK   88  A    between atoms: _216  and  _217
REMARK   89  A    between atoms: _217  and  _218
REMARK   90  A    between atoms: _227  and  _229
REMARK   91  A    between atoms: _229  and  _230
REMARK   92  A    between atoms: _229  and  _232
REMARK   93  A    between atoms: _232  and  _233
REMARK   94  A    between atoms: _235  and  _237
REMARK   95  A    between atoms: _237  and  _238
REMARK   96  A    between atoms: _241  and  _243
REMARK   97  A    between atoms: _243  and  _244
REMARK   98  A    between atoms: _243  and  _246
REMARK   99  A    between atoms: _246  and  _247
REMARK  100  A    between atoms: _247  and  _248
REMARK  101  A    between atoms: _248  and  _249
REMARK  102  A    between atoms: _258  and  _260
REMARK  103  A    between atoms: _260  and  _261
REMARK  104  A    between atoms: _260  and  _263
REMARK  105  A    between atoms: _263  and  _264
REMARK  106  A    between atoms: _267  and  _269
REMARK  107  A    between atoms: _269  and  _270
REMARK  108  A    between atoms: _269  and  _272
REMARK  109  A    between atoms: _272  and  _273
REMARK  110  A    between atoms: _276  and  _278
REMARK  111  A    between atoms: _278  and  _279
REMARK  112  A    between atoms: _282  and  _284
REMARK  113  A    between atoms: _284  and  _285
REMARK  114  A    between atoms: _284  and  _287
REMARK  115  A    between atoms: _287  and  _288
REMARK  116  A    between atoms: _288  and  _289
REMARK  117  A    between atoms: _294  and  _296
REMARK  118  A    between atoms: _296  and  _297
REMARK  119  A    between atoms: _296  and  _299
REMARK  120  A    between atoms: _299  and  _300
REMARK  121  A    between atoms: _303  and  _305
REMARK  122  A    between atoms: _305  and  _306
REMARK  123  A    between atoms: _305  and  _308
REMARK  124  A    between atoms: _308  and  _309
REMARK  125  A    between atoms: _315  and  _317
REMARK  126  A    between atoms: _317  and  _318
REMARK  127  A    between atoms: _317  and  _320
REMARK  128  A    between atoms: _320  and  _321
REMARK  129  A    between atoms: _321  and  _322
REMARK  130  A    between atoms: _322  and  _323
REMARK  131  A    between atoms: _332  and  _334
REMARK  132  A    between atoms: _334  and  _335
REMARK  133  A    between atoms: _334  and  _337
REMARK  134  A    between atoms: _340  and  _342
REMARK  135  A    between atoms: _342  and  _343
REMARK  136  A    between atoms: _342  and  _345
REMARK  137  A    between atoms: _345  and  _346
REMARK  138  A    between atoms: _351  and  _353
REMARK  139  A    between atoms: _353  and  _354
REMARK  140  A    between atoms: _353  and  _356
REMARK  141  A    between atoms: _356  and  _357
REMARK  142  A    between atoms: _360  and  _362
REMARK  143  A    between atoms: _362  and  _363
REMARK  144  A    between atoms: _362  and  _365
REMARK  145  A    between atoms: _365  and  _366
REMARK  146  A    between atoms: _366  and  _367
REMARK  147  A    between atoms: _367  and  _368
REMARK  148  A    between atoms: _377  and  _379
REMARK  149  A    between atoms: _379  and  _380
REMARK  150  A    between atoms: _379  and  _382
REMARK  151  A    between atoms: _382  and  _383
REMARK  152  A    between atoms: _386  and  _388
REMARK  153  A    between atoms: _388  and  _389
REMARK  154  A    between atoms: _388  and  _391
REMARK  155  A    between atoms: _391  and  _392
REMARK  156  A    between atoms: _395  and  _397
REMARK  157  A    between atoms: _397  and  _398
REMARK  158  A    between atoms: _397  and  _400
REMARK  159  A    between atoms: _400  and  _401
REMARK  160  A    between atoms: _406  and  _407
REMARK  161  A    between atoms: _409  and  _411
REMARK  162  A    between atoms: _411  and  _412
REMARK  163  A    between atoms: _411  and  _414
REMARK  164  A    between atoms: _414  and  _415
REMARK  165  A    between atoms: _420  and  _421
REMARK  166  A    between atoms: _423  and  _425
REMARK  167  A    between atoms: _425  and  _426
REMARK  168  A    between atoms: _425  and  _428
REMARK  169  A    between atoms: _428  and  _429
REMARK  170  A    between atoms: _432  and  _434
REMARK  171  A    between atoms: _434  and  _435
REMARK  172  A    between atoms: _434  and  _437
REMARK  173  A    between atoms: _437  and  _438
REMARK  174  A    between atoms: _438  and  _439
REMARK  175  A    between atoms: _444  and  _446
REMARK  176  A    between atoms: _446  and  _447
REMARK  177  A    between atoms: _446  and  _449
REMARK  178  A    between atoms: _449  and  _450
REMARK  179  A    between atoms: _460  and  _462
REMARK  180  A    between atoms: _462  and  _463
REMARK  181  A    between atoms: _462  and  _465
REMARK  182  A    between atoms: _465  and  _466
REMARK  183  A    between atoms: _466  and  _467
REMARK  184  A    between atoms: _469  and  _471
REMARK  185  A    between atoms: _471  and  _472
REMARK  186  A    between atoms: _471  and  _474
REMARK  187  A    between atoms: _474  and  _475
REMARK  188  A    between atoms: _480  and  _482
REMARK  189  A    between atoms: _482  and  _483
REMARK  190  A    between atoms: _485  and  _487
REMARK  191  A    between atoms: _487  and  _488
REMARK  192  A    between atoms: _487  and  _490
REMARK  193  A    between atoms: _490  and  _491
REMARK  194  A    between atoms: _491  and  _814
REMARK  195  A    between atoms: _492  and  _494
REMARK  196  A    between atoms: _494  and  _495
REMARK  197  A    between atoms: _494  and  _497
REMARK  198  A    between atoms: _497  and  _498
REMARK  199  A    between atoms: _498  and  _499
REMARK  200  A    between atoms: _502  and  _504
REMARK  201  A    between atoms: _504  and  _505
REMARK  202  A    between atoms: _504  and  _507
REMARK  203  A    between atoms: _507  and  _508
REMARK  204  A    between atoms: _508  and  _509
REMARK  205  A    between atoms: _514  and  _516
REMARK  206  A    between atoms: _516  and  _517
REMARK  207  A    between atoms: _516  and  _519
REMARK  208  A    between atoms: _519  and  _520
REMARK  209  A    between atoms: _526  and  _528
REMARK  210  A    between atoms: _528  and  _529
REMARK  211  A    between atoms: _532  and  _534
REMARK  212  A    between atoms: _534  and  _535
REMARK  213  A    between atoms: _534  and  _537
REMARK  214  A    between atoms: _537  and  _538
REMARK  215  A    between atoms: _543  and  _544
REMARK  216  A    between atoms: _546  and  _548
REMARK  217  A    between atoms: _548  and  _549
REMARK  218  A    between atoms: _548  and  _551
REMARK  219  A    between atoms: _551  and  _552
REMARK  220  A    between atoms: _557  and  _558
REMARK  221  A    between atoms: _560  and  _562
REMARK  222  A    between atoms: _562  and  _563
REMARK  223  A    between atoms: _562  and  _565
REMARK  224  A    between atoms: _565  and  _566
REMARK  225  A    between atoms: _569  and  _571
REMARK  226  A    between atoms: _571  and  _572
REMARK  227  A    between atoms: _571  and  _574
REMARK  228  A    between atoms: _574  and  _575
REMARK  229  A    between atoms: _578  and  _580
REMARK  230  A    between atoms: _580  and  _581
REMARK  231  A    between atoms: _580  and  _583
REMARK  232  A    between atoms: _583  and  _584
REMARK  233  A    between atoms: _587  and  _589
REMARK  234  A    between atoms: _589  and  _590
REMARK  235  A    between atoms: _589  and  _592
REMARK  236  A    between atoms: _592  and  _593
REMARK  237  A    between atoms: _603  and  _605
REMARK  238  A    between atoms: _605  and  _606
REMARK  239  A    between atoms: _605  and  _608
REMARK  240  A    between atoms: _608  and  _609
REMARK  241  A    between atoms: _612  and  _614
REMARK  242  A    between atoms: _614  and  _615
REMARK  243  A    between atoms: _618  and  _620
REMARK  244  A    between atoms: _620  and  _621
REMARK  245  A    between atoms: _624  and  _626
REMARK  246  A    between atoms: _626  and  _627
REMARK  247  A    between atoms: _626  and  _629
REMARK  248  A    between atoms: _629  and  _630
REMARK  249  A    between atoms: _630  and  _631
REMARK  250  A    between atoms: _636  and  _638
REMARK  251  A    between atoms: _638  and  _639
REMARK  252  A    between atoms: _638  and  _641
REMARK  253  A    between atoms: _641  and  _642
REMARK  254  A    between atoms: _645  and  _647
REMARK  255  A    between atoms: _647  and  _648
REMARK  256  A    between atoms: _647  and  _650
REMARK  257  A    between atoms: _650  and  _651
REMARK  258  A    between atoms: _653  and  _655
REMARK  259  A    between atoms: _655  and  _656
REMARK  260  A    between atoms: _655  and  _658
REMARK  261  A    between atoms: _658  and  _659
REMARK  262  A    between atoms: _659  and  _660
REMARK  263  A    between atoms: _663  and  _665
REMARK  264  A    between atoms: _665  and  _666
REMARK  265  A    between atoms: _665  and  _668
REMARK  266  A    between atoms: _668  and  _669
REMARK  267  A    between atoms: _669  and  _670
REMARK  268  A    between atoms: _675  and  _677
REMARK  269  A    between atoms: _677  and  _678
REMARK  270  A    between atoms: _677  and  _680
REMARK  271  A    between atoms: _680  and  _681
REMARK  272  A    between atoms: _681  and  _682
REMARK  273  A    between atoms: _682  and  _683
REMARK  274  A    between atoms: _683  and  _684
REMARK  275  A    between atoms: _688  and  _690
REMARK  276  A    between atoms: _690  and  _691
REMARK  277  A    between atoms: _690  and  _693
REMARK  278  A    between atoms: _693  and  _694
REMARK  279  A    between atoms: _696  and  _698
REMARK  280  A    between atoms: _698  and  _699
REMARK  281  A    between atoms: _698  and  _701
REMARK  282  A    between atoms: _701  and  _702
REMARK  283  A    between atoms: _707  and  _709
REMARK  284  A    between atoms: _709  and  _710
REMARK  285  A    between atoms: _713  and  _715
REMARK  286  A    between atoms: _715  and  _716
REMARK  287  A    between atoms: _715  and  _718
REMARK  288  A    between atoms: _718  and  _719
REMARK  289  A    between atoms: _721  and  _723
REMARK  290  A    between atoms: _723  and  _724
REMARK  291  A    between atoms: _723  and  _726
REMARK  292  A    between atoms: _726  and  _727
REMARK  293  A    between atoms: _727  and  _728
REMARK  294  A    between atoms: _731  and  _733
REMARK  295  A    between atoms: _733  and  _734
REMARK  296  A    between atoms: _737  and  _739
REMARK  297  A    between atoms: _739  and  _740
REMARK  298  A    between atoms: _739  and  _742
REMARK  299  A    between atoms: _742  and  _743
REMARK  300  A    between atoms: _743  and  _744
REMARK  301  A    between atoms: _747  and  _749
REMARK  302  A    between atoms: _749  and  _750
REMARK  303  A    between atoms: _749  and  _752
REMARK  304  A    between atoms: _752  and  _753
REMARK  305  A    between atoms: _758  and  _760
REMARK  306  A    between atoms: _760  and  _761
REMARK  307  A    between atoms: _760  and  _763
REMARK  308  A    between atoms: _763  and  _764
REMARK  309  A    between atoms: _764  and  _765
REMARK  310  A    between atoms: _770  and  _772
REMARK  311  A    between atoms: _772  and  _773
REMARK  312  A    between atoms: _776  and  _778
REMARK  313  A    between atoms: _778  and  _779
REMARK  314  A    between atoms: _778  and  _781
REMARK  315  A    between atoms: _781  and  _782
REMARK  316  A    between atoms: _787  and  _788
REMARK  317  A    between atoms: _790  and  _792
REMARK  318  A    between atoms: _792  and  _793
REMARK  319  A    between atoms: _792  and  _795
REMARK  320  A    between atoms: _795  and  _796
REMARK  321  A    between atoms: _799  and  _801
REMARK  322  A    between atoms: _801  and  _802
REMARK  323  A    between atoms: _801  and  _804
REMARK  324  A    between atoms: _804  and  _805
REMARK  325  A    between atoms: _808  and  _810
REMARK  326  A    between atoms: _810  and  _811
REMARK  327  A    between atoms: _810  and  _813
REMARK  328  A    between atoms: _813  and  _814
REMARK  329  A    between atoms: _815  and  _817
REMARK  330  A    between atoms: _817  and  _818
REMARK  331  A    between atoms: _817  and  _820
REMARK  332  A    between atoms: _823  and  _825
REMARK  333  A    between atoms: _825  and  _826
REMARK  334  A    between atoms: _825  and  _828
REMARK  335  A    between atoms: _828  and  _829
REMARK  336  A    between atoms: _829  and  _830
REMARK  337  A    between atoms: _833  and  _835
REMARK  338  A    between atoms: _835  and  _836
REMARK  339  A    between atoms: _835  and  _838
REMARK  340  A    between atoms: _838  and  _839
REMARK  341  A    between atoms: _849  and  _851
REMARK  342  A    between atoms: _851  and  _852
REMARK  343  A    between atoms: _851  and  _854
REMARK  344  A    between atoms: _854  and  _855
REMARK  345  A    between atoms: _858  and  _860
REMARK  346  A    between atoms: _860  and  _861
REMARK  347  A    between atoms: _860  and  _863
REMARK  348  A    between atoms: _863  and  _864
REMARK  349  A    between atoms: _864  and  _865
REMARK  350  A    between atoms: _865  and  _866
REMARK  351  A    between atoms: _866  and  _867
REMARK  352  A    between atoms: _871  and  _873
REMARK  353  A    between atoms: _873  and  _874
REMARK  354  A    between atoms: _873  and  _876
REMARK  355  A    between atoms: _876  and  _877
REMARK  356  A    between atoms: _882  and  _883
REMARK                            x       y       z     vdW  Elec       q    Type
REMARK                         _______ _______ _______ _____ _____    ______ ____
ROOT
ATOM      1  CA  GLU A   6       6.607  -7.481  26.261  0.00  0.00    +0.149 C 
ENDROOT
BRANCH   1   2
ATOM      2  C   GLU A   6       6.909  -8.114  27.624  0.00  0.00    +0.241 C 
ATOM      3  N   GLN A   7       5.874  -8.541  28.330  0.00  0.00    -0.297 N 
ATOM      4  H   GLN A   7       4.914  -8.469  27.936  0.00  0.00    +0.150 HD
ATOM      5  O   GLU A   6       8.079  -8.239  28.012  0.00  0.00    -0.273 OA
BRANCH   3   6
ATOM      6  CA  GLN A   7       6.076  -9.120  29.676  0.00  0.00    +0.149 C 
BRANCH   6   7
ATOM      7  C   GLN A   7       6.867 -10.411  29.653  0.00  0.00    +0.241 C 
ATOM      8  O   GLN A   7       7.558 -10.740  30.619  0.00  0.00    -0.273 OA
ATOM      9  N   LYS A   8       6.791 -11.129  28.561  0.00  0.00    -0.297 N 
ATOM     10  H   LYS A   8       6.300 -10.736  27.733  0.00  0.00    +0.150 HD
BRANCH   9  11
ATOM     11  CA  LYS A   8       7.361 -12.436  28.471  0.00  0.00    +0.149 C 
BRANCH  11  12
ATOM     12  C   LYS A   8       8.876 -12.313  28.168  0.00  0.00    +0.241 C 
ATOM     13  O   LYS A   8       9.747 -13.027  28.657  0.00  0.00    -0.273 OA
ATOM     14  N   SER A   9       9.206 -11.339  27.333  0.00  0.00    -0.295 N 
ATOM     15  H   SER A   9       8.453 -10.745  26.932  0.00  0.00    +0.150 HD
BRANCH  14  16
ATOM     16  CA  SER A   9      10.611 -11.067  26.951  0.00  0.00    +0.178 C 
BRANCH  16  17
ATOM     17  C   SER A   9      11.388 -10.272  28.028  0.00  0.00    +0.243 C 
ATOM     18  N   ASN A  10      10.705  -9.333  28.668  0.00  0.00    -0.298 N 
ATOM     19  H   ASN A  10       9.762  -9.055  28.328  0.00  0.00    +0.150 HD
ATOM     20  O   SER A   9      12.612 -10.492  28.253  0.00  0.00    -0.273 OA
BRANCH  18  21
ATOM     21  CA  ASN A  10      11.270  -8.688  29.847  0.00  0.00    +0.146 C 
BRANCH  21  22
ATOM     22  C   ASN A  10      11.501  -9.618  30.973  0.00  0.00    +0.227 C 
ATOM     23  O   ASN A  10      12.552  -9.644  31.494  0.00  0.00    -0.286 OA
ENDBRANCH  21  22
BRANCH  21  24
ATOM     24  CB  ASN A  10      10.291  -7.550  30.244  0.00  0.00    +0.112 C 
BRANCH  24  25
ATOM     25  CG  ASN A  10      10.397  -6.346  29.292  0.00  0.00    +0.222 C 
ATOM     26  ND2 ASN A  10       9.340  -5.567  29.194  0.00  0.00    -0.329 N 
ATOM     27 HD21 ASN A  10       8.500  -5.755  29.777  0.00  0.00    +0.145 HD
ATOM     28 HD22 ASN A  10       9.345  -4.764  28.533  0.00  0.00    +0.145 HD
ATOM     29  OD1 ASN A  10      11.426  -6.168  28.620  0.00  0.00    -0.275 OA
ENDBRANCH  24  25
ENDBRANCH  21  24
ENDBRANCH  18  21
ENDBRANCH  16  17
BRANCH  16  30
ATOM     30  CB  SER A   9      10.594 -10.271  25.695  0.00  0.00    +0.166 C 
BRANCH  30  31
ATOM     31  OG  SER A   9       9.896 -10.931  24.696  0.00  0.00    -0.380 OA
ATOM     32  H   SER A   9       8.962 -11.080  24.990  0.00  0.00    +0.211 HD
ENDBRANCH  30  31
ENDBRANCH  16  30
ENDBRANCH  14  16
ENDBRANCH  11  12
BRANCH  11  33
ATOM     33  CB  LYS A   8       6.588 -13.058  27.297  0.00  0.00    +0.029 C 
BRANCH  33  34
ATOM     34  CG  LYS A   8       6.959 -14.373  26.839  0.00  0.00    +0.000 C 
BRANCH  34  35
ATOM     35  CD  LYS A   8       6.224 -14.748  25.494  0.00  0.00    -0.024 C 
BRANCH  35  36
ATOM     36  CE  LYS A   8       6.528 -16.201  25.093  0.00  0.00    -0.086 C 
BRANCH  36  37
ATOM     37  NZ  LYS A   8       5.800 -16.385  23.807  0.00  0.00    +0.380 N 
ATOM     38  HZ1 LYS A   8       4.784 -16.226  23.960  0.00  0.00    -0.089 HD
ATOM     39  HZ2 LYS A   8       5.953 -17.353  23.459  0.00  0.00    -0.089 HD
ATOM     40  HZ3 LYS A   8       6.157 -15.704  23.107  0.00  0.00    -0.089 HD
ENDBRANCH  36  37
ENDBRANCH  35  36
ENDBRANCH  34  35
ENDBRANCH  33  34
ENDBRANCH  11  33
ENDBRANCH   9  11
ENDBRANCH   6   7
BRANCH   6  41
ATOM     41  CB  GLN A   7       4.799  -9.266  30.543  0.00  0.00    +0.039 C 
BRANCH  41  42
ATOM     42  CG  GLN A   7       3.899 -10.314  30.117  0.00  0.00    +0.087 C 
BRANCH  42  43
ATOM     43  CD  GLN A   7       4.403 -11.835  30.485  0.00  0.00    +0.219 C 
ATOM     44  OE1 GLN A   7       4.714 -12.143  31.680  0.00  0.00    -0.275 OA
ATOM     45  NE2 GLN A   7       4.374 -12.779  29.439  0.00  0.00    -0.329 N 
ATOM     46 HE21 GLN A   7       4.613 -13.773  29.629  0.00  0.00    +0.145 HD
ATOM     47 HE22 GLN A   7       4.114 -12.481  28.477  0.00  0.00    +0.145 HD
ENDBRANCH  42  43
ENDBRANCH  41  42
ENDBRANCH   6  41
ENDBRANCH   3   6
ENDBRANCH   1   2
BRANCH   1  49
ATOM     48  C   SER A   5       6.140  -9.562  25.029  0.00  0.00    +0.243 C 
ATOM     49  N   GLU A   6       5.723  -8.374  25.452  0.00  0.00    -0.297 N 
ATOM     50  H   GLU A   6       4.761  -8.058  25.215  0.00  0.00    +0.150 HD
ATOM     51  O   SER A   5       7.255 -10.037  25.355  0.00  0.00    -0.273 OA
BRANCH  48  52
ATOM     52  CA  SER A   5       5.138 -10.376  24.208  0.00  0.00    +0.178 C 
BRANCH  52  55
ATOM     53  C   ILE A   4       3.534 -10.698  25.972  0.00  0.00    +0.241 C 
ATOM     54  O   ILE A   4       4.319 -11.269  26.628  0.00  0.00    -0.273 OA
ATOM     55  N   SER A   5       3.839 -10.220  24.798  0.00  0.00    -0.295 N 
ATOM     56  H   SER A   5       3.110  -9.703  24.266  0.00  0.00    +0.150 HD
BRANCH  53  57
ATOM     57  CA  ILE A   4       2.179 -10.454  26.481  0.00  0.00    +0.149 C 
BRANCH  57  60
ATOM     58  C   GLN A   3       2.402  -8.057  26.499  0.00  0.00    +0.241 C 
ATOM     59  O   GLN A   3       3.400  -8.119  27.173  0.00  0.00    -0.273 OA
ATOM     60  N   ILE A   4       1.674  -9.109  26.180  0.00  0.00    -0.297 N 
ATOM     61  H   ILE A   4       0.750  -8.987  25.719  0.00  0.00    +0.150 HD
BRANCH  58  62
ATOM     62  CA  GLN A   3       1.916  -6.716  26.027  0.00  0.00    +0.149 C 
BRANCH  62  64
ATOM     63  C   ALA A   2       2.418  -6.957  23.666  0.00  0.00    +0.241 C 
ATOM     64  N   GLN A   3       1.576  -6.579  24.628  0.00  0.00    -0.297 N 
ATOM     65  H   GLN A   3       0.653  -6.176  24.366  0.00  0.00    +0.150 HD
ATOM     66  O   ALA A   2       3.528  -7.409  23.891  0.00  0.00    -0.273 OA
BRANCH  63  67
ATOM     67  CA  ALA A   2       1.941  -6.746  22.211  0.00  0.00    +0.149 C 
ATOM     68  CB  ALA A   2       2.953  -5.824  21.484  0.00  0.00    +0.031 C 
BRANCH  67  70
ATOM     69  C   ALA A   1      -0.410  -6.843  22.172  0.00  0.00    +0.238 C 
ATOM     70  N   ALA A   2       0.674  -6.143  22.240  0.00  0.00    -0.297 N 
ATOM     71  H   ALA A   2       0.606  -5.108  22.318  0.00  0.00    +0.150 HD
ATOM     72  O   ALA A   1      -0.417  -8.002  21.974  0.00  0.00    -0.274 OA
BRANCH  69  73
ATOM     73  CA  ALA A   1      -1.765  -6.097  22.234  0.00  0.00    +0.145 C 
ATOM     74  CB  ALA A   1      -2.559  -6.258  20.814  0.00  0.00    +0.028 C 
BRANCH  73  75
ATOM     75  N   ALA A   1      -1.568  -4.688  22.581  0.00  0.00    -0.238 NA
ATOM     76  H   ALA A   1      -1.499  -3.976  21.826  0.00  0.00    +0.142 HD
ENDBRANCH  73  75
ENDBRANCH  69  73
ENDBRANCH  67  70
ENDBRANCH  63  67
ENDBRANCH  62  64
BRANCH  62  77
ATOM     77  CB  GLN A   3       0.738  -6.371  26.890  0.00  0.00    +0.039 C 
BRANCH  77  78
ATOM     78  CG  GLN A   3       0.712  -4.946  27.247  0.00  0.00    +0.087 C 
BRANCH  78  79
ATOM     79  CD  GLN A   3      -0.450  -4.665  28.166  0.00  0.00    +0.219 C 
ATOM     80  OE1 GLN A   3      -0.625  -5.344  29.267  0.00  0.00    -0.275 OA
ATOM     81  NE2 GLN A   3      -1.301  -3.636  27.750  0.00  0.00    -0.329 N 
ATOM     82 HE21 GLN A   3      -2.125  -3.377  28.329  0.00  0.00    +0.145 HD
ATOM     83 HE22 GLN A   3      -1.110  -3.130  26.862  0.00  0.00    +0.145 HD
ENDBRANCH  78  79
ENDBRANCH  77  78
ENDBRANCH  62  77
ENDBRANCH  58  62
ENDBRANCH  57  60
BRANCH  57  84
ATOM     84  CB  ILE A   4       1.272 -11.519  26.033  0.00  0.00    +0.027 C 
ATOM     85  CG2 ILE A   4       1.868 -12.962  26.251  0.00  0.00    +0.002 C 
BRANCH  84  86
ATOM     86  CG1 ILE A   4      -0.125 -11.385  26.691  0.00  0.00    +0.002 C 
ATOM     87  CD1 ILE A   4      -1.160 -12.423  26.018  0.00  0.00    +0.000 C 
ENDBRANCH  84  86
ENDBRANCH  57  84
ENDBRANCH  53  57
ENDBRANCH  52  55
BRANCH  52  88
ATOM     88  CB  SER A   5       5.150  -9.872  22.763  0.00  0.00    +0.166 C 
BRANCH  88  89
ATOM     89  OG  SER A   5       4.385 -10.681  21.893  0.00  0.00    -0.380 OA
ATOM     90  H   SER A   5       4.749 -11.602  21.895  0.00  0.00    +0.211 HD
ENDBRANCH  88  89
ENDBRANCH  52  88
ENDBRANCH  48  52
ENDBRANCH   1  49
BRANCH   1  91
ATOM     91  CB  GLU A   6       5.925  -6.156  26.458  0.00  0.00    +0.041 C 
BRANCH  91  92
ATOM     92  CG  GLU A   6       6.684  -5.086  27.283  0.00  0.00    +0.116 C 
BRANCH  92  93
ATOM     93  CD  GLU A   6       5.817  -3.939  27.677  0.00  0.00    +0.365 C 
ATOM     94  OE2 GLU A   6       5.299  -3.962  28.787  0.00  0.00    -0.246 OA
ATOM     95  OE1 GLU A   6       5.613  -2.994  26.930  0.00  0.00    -0.246 OA
ENDBRANCH  92  93
ENDBRANCH  91  92
ENDBRANCH   1  91
TORSDOF 42
REMARK  Name = ../refined-set-2016/3bzf/3bzf_pocket.pdb
REMARK  356 active torsions:
REMARK  status: ('A' for Active; 'I' for Inactive)
REMARK    1  A    between atoms: _1  and  _3
REMARK    2  A    between atoms: _3  and  _4
REMARK    3  A    between atoms: _3  and  _6
REMARK    4  A    between atoms: _6  and  _7
REMARK    5  A    between atoms: _10  and  _12
REMARK    6  A    between atoms: _12  and  _13
REMARK    7  A    between atoms: _12  and  _15
REMARK    8  A    between atoms: _15  and  _16
REMARK    9  A    between atoms: _16  and  _17
REMARK   10  A    between atoms: _17  and  _18
REMARK   11  A    between atoms: _18  and  _19
REMARK   12  A    between atoms: _23  and  _25
REMARK   13  A    between atoms: _25  and  _26
REMARK   14  A    between atoms: _25  and  _28
REMARK   15  A    between atoms: _28  and  _29
REMARK   16  A    between atoms: _34  and  _35
REMARK   17  A    between atoms: _37  and  _39
REMARK   18  A    between atoms: _39  and  _40
REMARK   19  A    between atoms: _39  and  _42
REMARK   20  A    between atoms: _42  and  _43
REMARK   21  A    between atoms: _49  and  _51
REMARK   22  A    between atoms: _51  and  _52
REMARK   23  A    between atoms: _51  and  _54
REMARK   24  A    between atoms: _54  and  _55
REMARK   25  A    between atoms: _60  and  _62
REMARK   26  A    between atoms: _62  and  _63
REMARK   27  A    between atoms: _62  and  _65
REMARK   28  A    between atoms: _65  and  _66
REMARK   29  A    between atoms: _72  and  _74
REMARK   30  A    between atoms: _74  and  _75
REMARK   31  A    between atoms: _74  and  _77
REMARK   32  A    between atoms: _77  and  _78
REMARK   33  A    between atoms: _81  and  _83
REMARK   34  A    between atoms: _83  and  _84
REMARK   35  A    between atoms: _83  and  _86
REMARK   36  A    between atoms: _86  and  _87
REMARK   37  A    between atoms: _89  and  _91
REMARK   38  A    between atoms: _91  and  _92
REMARK   39  A    between atoms: _91  and  _94
REMARK   40  A    between atoms: _97  and  _99
REMARK   41  A    between atoms: _99  and  _100
REMARK   42  A    between atoms: _102  and  _104
REMARK   43  A    between atoms: _104  and  _105
REMARK   44  A    between atoms: _104  and  _107
REMARK   45  A    between atoms: _107  and  _108
REMARK   46  A    between atoms: _114  and  _116
REMARK   47  A    between atoms: _116  and  _117
REMARK   48  A    between atoms: _116  and  _119
REMARK   49  A    between atoms: _122  and  _124
REMARK   50  A    between atoms: _124  and  _125
REMARK   51  A    between atoms: _124  and  _127
REMARK   52  A    between atoms: _127  and  _128
REMARK   53  A    between atoms: _128  and  _129
REMARK   54  A    between atoms: _129  and  _130
REMARK   55  A    between atoms: _139  and  _141
REMARK   56  A    between atoms: _141  and  _142
REMARK   57  A    between atoms: _141  and  _144
REMARK   58  A    between atoms: _144  and  _145
REMARK   59  A    between atoms: _151  and  _153
REMARK   60  A    between atoms: _153  and  _154
REMARK   61  A    between atoms: _153  and  _156
REMARK   62  A    between atoms: _156  and  _157
REMARK   63  A    between atoms: _157  and  _158
REMARK   64  A    between atoms: _160  and  _162
REMARK   65  A    between atoms: _162  and  _163
REMARK   66  A    between atoms: _162  and  _165
REMARK   67  A    between atoms: _165  and  _166
REMARK   68  A    between atoms: _171  and  _172
REMARK   69  A    between atoms: _174  and  _176
REMARK   70  A    between atoms: _176  and  _177
REMARK   71  A    between atoms: _176  and  _179
REMARK   72  A    between atoms: _179  and  _180
REMARK   73  A    between atoms: _180  and  _181
REMARK   74  A    between atoms: _181  and  _182
REMARK   75  A    between atoms: _191  and  _193
REMARK   76  A    between atoms: _193  and  _194
REMARK   77  A    between atoms: _193  and  _196
REMARK   78  A    between atoms: _196  and  _197
REMARK   79  A    between atoms: _197  and  _198
REMARK   80  A    between atoms: _201  and  _203
REMARK   81  A    between atoms: _203  and  _204
REMARK   82  A    between atoms: _203  and  _206
REMARK   83  A    between atoms: _206  and  _207
REMARK   84  A    between atoms: _210  and  _212
REMARK   85  A    between atoms: _212  and  _213
REMARK   86  A    between atoms: _212  and  _215
REMARK   87  A    between atoms: _215  and  _216
REMARK   88  A    between atoms: _216  and  _217
REMARK   89  A    between atoms: _217  and  _218
REMARK   90  A    between atoms: _227  and  _229
REMARK   91  A    between atoms: _229  and  _230
REMARK   92  A    between atoms: _229  and  _232
REMARK   93  A    between atoms: _232  and  _233
REMARK   94  A    between atoms: _235  and  _237
REMARK   95  A    between atoms: _237  and  _238
REMARK   96  A    between atoms: _241  and  _243
REMARK   97  A    between atoms: _243  and  _244
REMARK   98  A    between atoms: _243  and  _246
REMARK   99  A    between atoms: _246  and  _247
REMARK  100  A    between atoms: _247  and  _248
REMARK  101  A    between atoms: _248  and  _249
REMARK  102  A    between atoms: _258  and  _260
REMARK  103  A    between atoms: _260  and  _261
REMARK  104  A    between atoms: _260  and  _263
REMARK  105  A    between atoms: _263  and  _264
REMARK  106  A    between atoms: _267  and  _269
REMARK  107  A    between atoms: _269  and  _270
REMARK  108  A    between atoms: _269  and  _272
REMARK  109  A    between atoms: _272  and  _273
REMARK  110  A    between atoms: _276  and  _278
REMARK  111  A    between atoms: _278  and  _279
REMARK  112  A    between atoms: _282  and  _284
REMARK  113  A    between atoms: _284  and  _285
REMARK  114  A    between atoms: _284  and  _287
REMARK  115  A    between atoms: _287  and  _288
REMARK  116  A    between atoms: _288  and  _289
REMARK  117  A    between atoms: _294  and  _296
REMARK  118  A    between atoms: _296  and  _297
REMARK  119  A    between atoms: _296  and  _299
REMARK  120  A    between atoms: _299  and  _300
REMARK  121  A    between atoms: _303  and  _305
REMARK  122  A    between atoms: _305  and  _306
REMARK  123  A    between atoms: _305  and  _308
REMARK  124  A    between atoms: _308  and  _309
REMARK  125  A    between atoms: _315  and  _317
REMARK  126  A    between atoms: _317  and  _318
REMARK  127  A    between atoms: _317  and  _320
REMARK  128  A    between atoms: _320  and  _321
REMARK  129  A    between atoms: _321  and  _322
REMARK  130  A    between atoms: _322  and  _323
REMARK  131  A    between atoms: _332  and  _334
REMARK  132  A    between atoms: _334  and  _335
REMARK  133  A    between atoms: _334  and  _337
REMARK  134  A    between atoms: _340  and  _342
REMARK  135  A    between atoms: _342  and  _343
REMARK  136  A    between atoms: _342  and  _345
REMARK  137  A    between atoms: _345  and  _346
REMARK  138  A    between atoms: _351  and  _353
REMARK  139  A    between atoms: _353  and  _354
REMARK  140  A    between atoms: _353  and  _356
REMARK  141  A    between atoms: _356  and  _357
REMARK  142  A    between atoms: _360  and  _362
REMARK  143  A    between atoms: _362  and  _363
REMARK  144  A    between atoms: _362  and  _365
REMARK  145  A    between atoms: _365  and  _366
REMARK  146  A    between atoms: _366  and  _367
REMARK  147  A    between atoms: _367  and  _368
REMARK  148  A    between atoms: _377  and  _379
REMARK  149  A    between atoms: _379  and  _380
REMARK  150  A    between atoms: _379  and  _382
REMARK  151  A    between atoms: _382  and  _383
REMARK  152  A    between atoms: _386  and  _388
REMARK  153  A    between atoms: _388  and  _389
REMARK  154  A    between atoms: _388  and  _391
REMARK  155  A    between atoms: _391  and  _392
REMARK  156  A    between atoms: _395  and  _397
REMARK  157  A    between atoms: _397  and  _398
REMARK  158  A    between atoms: _397  and  _400
REMARK  159  A    between atoms: _400  and  _401
REMARK  160  A    between atoms: _406  and  _407
REMARK  161  A    between atoms: _409  and  _411
REMARK  162  A    between atoms: _411  and  _412
REMARK  163  A    between atoms: _411  and  _414
REMARK  164  A    between atoms: _414  and  _415
REMARK  165  A    between atoms: _420  and  _421
REMARK  166  A    between atoms: _423  and  _425
REMARK  167  A    between atoms: _425  and  _426
REMARK  168  A    between atoms: _425  and  _428
REMARK  169  A    between atoms: _428  and  _429
REMARK  170  A    between atoms: _432  and  _434
REMARK  171  A    between atoms: _434  and  _435
REMARK  172  A    between atoms: _434  and  _437
REMARK  173  A    between atoms: _437  and  _438
REMARK  174  A    between atoms: _438  and  _439
REMARK  175  A    between atoms: _444  and  _446
REMARK  176  A    between atoms: _446  and  _447
REMARK  177  A    between atoms: _446  and  _449
REMARK  178  A    between atoms: _449  and  _450
REMARK  179  A    between atoms: _460  and  _462
REMARK  180  A    between atoms: _462  and  _463
REMARK  181  A    between atoms: _462  and  _465
REMARK  182  A    between atoms: _465  and  _466
REMARK  183  A    between atoms: _466  and  _467
REMARK  184  A    between atoms: _469  and  _471
REMARK  185  A    between atoms: _471  and  _472
REMARK  186  A    between atoms: _471  and  _474
REMARK  187  A    between atoms: _474  and  _475
REMARK  188  A    between atoms: _480  and  _482
REMARK  189  A    between atoms: _482  and  _483
REMARK  190  A    between atoms: _485  and  _487
REMARK  191  A    between atoms: _487  and  _488
REMARK  192  A    between atoms: _487  and  _490
REMARK  193  A    between atoms: _490  and  _491
REMARK  194  A    between atoms: _491  and  _814
REMARK  195  A    between atoms: _492  and  _494
REMARK  196  A    between atoms: _494  and  _495
REMARK  197  A    between atoms: _494  and  _497
REMARK  198  A    between atoms: _497  and  _498
REMARK  199  A    between atoms: _498  and  _499
REMARK  200  A    between atoms: _502  and  _504
REMARK  201  A    between atoms: _504  and  _505
REMARK  202  A    between atoms: _504  and  _507
REMARK  203  A    between atoms: _507  and  _508
REMARK  204  A    between atoms: _508  and  _509
REMARK  205  A    between atoms: _514  and  _516
REMARK  206  A    between atoms: _516  and  _517
REMARK  207  A    between atoms: _516  and  _519
REMARK  208  A    between atoms: _519  and  _520
REMARK  209  A    between atoms: _526  and  _528
REMARK  210  A    between atoms: _528  and  _529
REMARK  211  A    between atoms: _532  and  _534
REMARK  212  A    between atoms: _534  and  _535
REMARK  213  A    between atoms: _534  and  _537
REMARK  214  A    between atoms: _537  and  _538
REMARK  215  A    between atoms: _543  and  _544
REMARK  216  A    between atoms: _546  and  _548
REMARK  217  A    between atoms: _548  and  _549
REMARK  218  A    between atoms: _548  and  _551
REMARK  219  A    between atoms: _551  and  _552
REMARK  220  A    between atoms: _557  and  _558
REMARK  221  A    between atoms: _560  and  _562
REMARK  222  A    between atoms: _562  and  _563
REMARK  223  A    between atoms: _562  and  _565
REMARK  224  A    between atoms: _565  and  _566
REMARK  225  A    between atoms: _569  and  _571
REMARK  226  A    between atoms: _571  and  _572
REMARK  227  A    between atoms: _571  and  _574
REMARK  228  A    between atoms: _574  and  _575
REMARK  229  A    between atoms: _578  and  _580
REMARK  230  A    between atoms: _580  and  _581
REMARK  231  A    between atoms: _580  and  _583
REMARK  232  A    between atoms: _583  and  _584
REMARK  233  A    between atoms: _587  and  _589
REMARK  234  A    between atoms: _589  and  _590
REMARK  235  A    between atoms: _589  and  _592
REMARK  236  A    between atoms: _592  and  _593
REMARK  237  A    between atoms: _603  and  _605
REMARK  238  A    between atoms: _605  and  _606
REMARK  239  A    between atoms: _605  and  _608
REMARK  240  A    between atoms: _608  and  _609
REMARK  241  A    between atoms: _612  and  _614
REMARK  242  A    between atoms: _614  and  _615
REMARK  243  A    between atoms: _618  and  _620
REMARK  244  A    between atoms: _620  and  _621
REMARK  245  A    between atoms: _624  and  _626
REMARK  246  A    between atoms: _626  and  _627
REMARK  247  A    between atoms: _626  and  _629
REMARK  248  A    between atoms: _629  and  _630
REMARK  249  A    between atoms: _630  and  _631
REMARK  250  A    between atoms: _636  and  _638
REMARK  251  A    between atoms: _638  and  _639
REMARK  252  A    between atoms: _638  and  _641
REMARK  253  A    between atoms: _641  and  _642
REMARK  254  A    between atoms: _645  and  _647
REMARK  255  A    between atoms: _647  and  _648
REMARK  256  A    between atoms: _647  and  _650
REMARK  257  A    between atoms: _650  and  _651
REMARK  258  A    between atoms: _653  and  _655
REMARK  259  A    between atoms: _655  and  _656
REMARK  260  A    between atoms: _655  and  _658
REMARK  261  A    between atoms: _658  and  _659
REMARK  262  A    between atoms: _659  and  _660
REMARK  263  A    between atoms: _663  and  _665
REMARK  264  A    between atoms: _665  and  _666
REMARK  265  A    between atoms: _665  and  _668
REMARK  266  A    between atoms: _668  and  _669
REMARK  267  A    between atoms: _669  and  _670
REMARK  268  A    between atoms: _675  and  _677
REMARK  269  A    between atoms: _677  and  _678
REMARK  270  A    between atoms: _677  and  _680
REMARK  271  A    between atoms: _680  and  _681
REMARK  272  A    between atoms: _681  and  _682
REMARK  273  A    between atoms: _682  and  _683
REMARK  274  A    between atoms: _683  and  _684
REMARK  275  A    between atoms: _688  and  _690
REMARK  276  A    between atoms: _690  and  _691
REMARK  277  A    between atoms: _690  and  _693
REMARK  278  A    between atoms: _693  and  _694
REMARK  279  A    between atoms: _696  and  _698
REMARK  280  A    between atoms: _698  and  _699
REMARK  281  A    between atoms: _698  and  _701
REMARK  282  A    between atoms: _701  and  _702
REMARK  283  A    between atoms: _707  and  _709
REMARK  284  A    between atoms: _709  and  _710
REMARK  285  A    between atoms: _713  and  _715
REMARK  286  A    between atoms: _715  and  _716
REMARK  287  A    between atoms: _715  and  _718
REMARK  288  A    between atoms: _718  and  _719
REMARK  289  A    between atoms: _721  and  _723
REMARK  290  A    between atoms: _723  and  _724
REMARK  291  A    between atoms: _723  and  _726
REMARK  292  A    between atoms: _726  and  _727
REMARK  293  A    between atoms: _727  and  _728
REMARK  294  A    between atoms: _731  and  _733
REMARK  295  A    between atoms: _733  and  _734
REMARK  296  A    between atoms: _737  and  _739
REMARK  297  A    between atoms: _739  and  _740
REMARK  298  A    between atoms: _739  and  _742
REMARK  299  A    between atoms: _742  and  _743
REMARK  300  A    between atoms: _743  and  _744
REMARK  301  A    between atoms: _747  and  _749
REMARK  302  A    between atoms: _749  and  _750
REMARK  303  A    between atoms: _749  and  _752
REMARK  304  A    between atoms: _752  and  _753
REMARK  305  A    between atoms: _758  and  _760
REMARK  306  A    between atoms: _760  and  _761
REMARK  307  A    between atoms: _760  and  _763
REMARK  308  A    between atoms: _763  and  _764
REMARK  309  A    between atoms: _764  and  _765
REMARK  310  A    between atoms: _770  and  _772
REMARK  311  A    between atoms: _772  and  _773
REMARK  312  A    between atoms: _776  and  _778
REMARK  313  A    between atoms: _778  and  _779
REMARK  314  A    between atoms: _778  and  _781
REMARK  315  A    between atoms: _781  and  _782
REMARK  316  A    between atoms: _787  and  _788
REMARK  317  A    between atoms: _790  and  _792
REMARK  318  A    between atoms: _792  and  _793
REMARK  319  A    between atoms: _792  and  _795
REMARK  320  A    between atoms: _795  and  _796
REMARK  321  A    between atoms: _799  and  _801
REMARK  322  A    between atoms: _801  and  _802
REMARK  323  A    between atoms: _801  and  _804
REMARK  324  A    between atoms: _804  and  _805
REMARK  325  A    between atoms: _808  and  _810
REMARK  326  A    between atoms: _810  and  _811
REMARK  327  A    between atoms: _810  and  _813
REMARK  328  A    between atoms: _813  and  _814
REMARK  329  A    between atoms: _815  and  _817
REMARK  330  A    between atoms: _817  and  _818
REMARK  331  A    between atoms: _817  and  _820
REMARK  332  A    between atoms: _823  and  _825
REMARK  333  A    between atoms: _825  and  _826
REMARK  334  A    between atoms: _825  and  _828
REMARK  335  A    between atoms: _828  and  _829
REMARK  336  A    between atoms: _829  and  _830
REMARK  337  A    between atoms: _833  and  _835
REMARK  338  A    between atoms: _835  and  _836
REMARK  339  A    between atoms: _835  and  _838
REMARK  340  A    between atoms: _838  and  _839
REMARK  341  A    between atoms: _849  and  _851
REMARK  342  A    between atoms: _851  and  _852
REMARK  343  A    between atoms: _851  and  _854
REMARK  344  A    between atoms: _854  and  _855
REMARK  345  A    between atoms: _858  and  _860
REMARK  346  A    between atoms: _860  and  _861
REMARK  347  A    between atoms: _860  and  _863
REMARK  348  A    between atoms: _863  and  _864
REMARK  349  A    between atoms: _864  and  _865
REMARK  350  A    between atoms: _865  and  _866
REMARK  351  A    between atoms: _866  and  _867
REMARK  352  A    between atoms: _871  and  _873
REMARK  353  A    between atoms: _873  and  _874
REMARK  354  A    between atoms: _873  and  _876
REMARK  355  A    between atoms: _876  and  _877
REMARK  356  A    between atoms: _882  and  _883
REMARK                            x       y       z     vdW  Elec       q    Type
REMARK                         _______ _______ _______ _____ _____    ______ ____
ROOT
ATOM      1  C   ALA A   4      18.647  -8.079  26.210  0.00  0.00    +0.241 C 
ATOM      2  N   GLU A   5      19.070  -8.782  27.240  0.00  0.00    -0.297 N 
ATOM      3  H   GLU A   5      18.363  -9.195  27.881  0.00  0.00    +0.150 HD
ATOM      4  O   ALA A   4      19.385  -7.598  25.368  0.00  0.00    -0.273 OA
ENDROOT
BRANCH   1   5
ATOM      5  CA  ALA A   4      17.117  -7.859  26.177  0.00  0.00    +0.149 C 
ATOM      6  CB  ALA A   4      16.814  -6.624  27.079  0.00  0.00    +0.031 C 
BRANCH   5   8
ATOM      7  C   GLU A   3      16.614 -10.244  25.998  0.00  0.00    +0.241 C 
ATOM      8  N   ALA A   4      16.361  -9.074  26.570  0.00  0.00    -0.297 N 
ATOM      9  H   ALA A   4      15.625  -9.008  27.302  0.00  0.00    +0.150 HD
ATOM     10  O   GLU A   3      17.466 -10.381  25.132  0.00  0.00    -0.273 OA
BRANCH   7  11
ATOM     11  CA  GLU A   3      15.868 -11.480  26.463  0.00  0.00    +0.149 C 
BRANCH  11  14
ATOM     12  C   SER A   2      16.226 -11.344  28.899  0.00  0.00    +0.243 C 
ATOM     13  O   SER A   2      17.416 -11.254  28.673  0.00  0.00    -0.273 OA
ATOM     14  N   GLU A   3      15.380 -11.433  27.885  0.00  0.00    -0.297 N 
ATOM     15  H   GLU A   3      14.358 -11.471  28.075  0.00  0.00    +0.150 HD
BRANCH  12  16
ATOM     16  CA  SER A   2      15.581 -11.283  30.320  0.00  0.00    +0.178 C 
BRANCH  16  18
ATOM     17  C   ALA A   1      14.314 -13.297  30.248  0.00  0.00    +0.238 C 
ATOM     18  N   SER A   2      14.333 -11.975  30.380  0.00  0.00    -0.295 N 
ATOM     19  H   SER A   2      13.448 -11.449  30.526  0.00  0.00    +0.150 HD
ATOM     20  O   ALA A   1      15.331 -13.924  29.888  0.00  0.00    -0.274 OA
BRANCH  17  21
ATOM     21  CA  ALA A   1      12.942 -13.996  30.472  0.00  0.00    +0.145 C 
ATOM     22  CB  ALA A   1      12.479 -14.805  29.242  0.00  0.00    +0.028 C 
BRANCH  21  23
ATOM     23  N   ALA A   1      11.978 -12.893  30.773  0.00  0.00    -0.238 NA
ATOM     24  H   ALA A   1      11.460 -12.425  30.002  0.00  0.00    +0.142 HD
ENDBRANCH  21  23
ENDBRANCH  17  21
ENDBRANCH  16  18
BRANCH  16  25
ATOM     25  CB  SER A   2      16.489 -11.917  31.368  0.00  0.00    +0.166 C 
BRANCH  25  26
ATOM     26  OG  SER A   2      17.397 -10.966  31.770  0.00  0.00    -0.380 OA
ATOM     27  H   SER A   2      17.929 -10.668  30.990  0.00  0.00    +0.211 HD
ENDBRANCH  25  26
ENDBRANCH  16  25
ENDBRANCH  12  16
ENDBRANCH  11  14
BRANCH  11  28
ATOM     28  CB  GLU A   3      14.715 -11.682  25.501  0.00  0.00    +0.041 C 
BRANCH  28  29
ATOM     29  CG  GLU A   3      13.809 -13.034  25.722  0.00  0.00    +0.116 C 
BRANCH  29  30
ATOM     30  CD  GLU A   3      14.408 -14.255  25.096  0.00  0.00    +0.365 C 
ATOM     31  OE2 GLU A   3      13.911 -15.405  25.464  0.00  0.00    -0.246 OA
ATOM     32  OE1 GLU A   3      15.331 -14.112  24.311  0.00  0.00    -0.246 OA
ENDBRANCH  29  30
ENDBRANCH  28  29
ENDBRANCH  11  28
ENDBRANCH   7  11
ENDBRANCH   5   8
ENDBRANCH   1   5
BRANCH   2  33
ATOM     33  CA  GLU A   5      20.430  -9.001  27.515  0.00  0.00    +0.149 C 
BRANCH  33  34
ATOM     34  C   GLU A   5      21.116  -9.690  26.402  0.00  0.00    +0.241 C 
ATOM     35  O   GLU A   5      22.299  -9.393  26.122  0.00  0.00    -0.273 OA
ATOM     36  N   HIS A   6      20.463 -10.651  25.730  0.00  0.00    -0.297 N 
ATOM     37  H   HIS A   6      19.481 -10.902  25.964  0.00  0.00    +0.150 HD
BRANCH  36  38
ATOM     38  CA  HIS A   6      21.193 -11.337  24.646  0.00  0.00    +0.155 C 
BRANCH  38  39
ATOM     39  C   HIS A   6      21.335 -10.414  23.417  0.00  0.00    +0.241 C 
ATOM     40  N   GLN A   7      20.306  -9.623  23.163  0.00  0.00    -0.298 N 
ATOM     41  H   GLN A   7      19.450  -9.668  23.752  0.00  0.00    +0.150 HD
ATOM     42  O   HIS A   6      22.373 -10.423  22.735  0.00  0.00    -0.273 OA
BRANCH  40  43
ATOM     43  CA  GLN A   7      20.383  -8.716  22.081  0.00  0.00    +0.137 C 
BRANCH  43  44
ATOM     44  C   GLN A   7      21.391  -7.607  22.308  0.00  0.00    +0.227 C 
ATOM     45  O   GLN A   7      22.132  -7.187  21.416  0.00  0.00    -0.286 OA
ENDBRANCH  43  44
BRANCH  43  46
ATOM     46  CB  GLN A   7      18.978  -8.121  21.782  0.00  0.00    +0.037 C 
BRANCH  46  47
ATOM     47  CG  GLN A   7      17.919  -9.175  21.496  0.00  0.00    +0.087 C 
BRANCH  47  48
ATOM     48  CD  GLN A   7      18.356 -10.063  20.389  0.00  0.00    +0.219 C 
ATOM     49  NE2 GLN A   7      18.171 -11.360  20.557  0.00  0.00    -0.329 N 
ATOM     50 HE21 GLN A   7      17.723 -11.713  21.427  0.00  0.00    +0.145 HD
ATOM     51 HE22 GLN A   7      18.473 -12.028  19.819  0.00  0.00    +0.145 HD
ATOM     52  OE1 GLN A   7      18.859  -9.609  19.421  0.00  0.00    -0.275 OA
ENDBRANCH  47  48
ENDBRANCH  46  47
ENDBRANCH  43  46
ENDBRANCH  40  43
ENDBRANCH  38  39
BRANCH  38  53
ATOM     53  CB  HIS A   6      20.476 -12.632  24.207  0.00  0.00    +0.076 C 
BRANCH  53  54
ATOM     54  CG  HIS A   6      20.074 -13.491  25.337  0.00  0.00    +0.082 A 
ATOM     55  CD2 HIS A   6      20.809 -14.023  26.339  0.00  0.00    +0.115 A 
ATOM     56  NE2 HIS A   6      19.927 -14.634  27.195  0.00  0.00    -0.221 NA
ATOM     57  CE1 HIS A   6      18.703 -14.473  26.724  0.00  0.00    +0.199 A 
ATOM     58  ND1 HIS A   6      18.760 -13.786  25.602  0.00  0.00    -0.227 NA
ENDBRANCH  53  54
ENDBRANCH  38  53
ENDBRANCH  36  38
ENDBRANCH  33  34
BRANCH  33  59
ATOM     59  CB  GLU A   5      20.475  -9.956  28.731  0.00  0.00    +0.041 C 
BRANCH  59  60
ATOM     60  CG  GLU A   5      21.607  -9.741  29.676  0.00  0.00    +0.116 C 
BRANCH  60  61
ATOM     61  CD  GLU A   5      21.681  -8.327  30.169  0.00  0.00    +0.365 C 
ATOM     62  OE2 GLU A   5      20.714  -7.883  30.828  0.00  0.00    -0.246 OA
ATOM     63  OE1 GLU A   5      22.697  -7.640  29.786  0.00  0.00    -0.246 OA
ENDBRANCH  60  61
ENDBRANCH  59  60
ENDBRANCH  33  59
ENDBRANCH   2  33
TORSDOF 27
REMARK  Name = ../refined-set-2016/3bzf/3bzf_pocket.pdb
REMARK  356 active torsions:
REMARK  status: ('A' for Active; 'I' for Inactive)
REMARK    1  A    between atoms: _1  and  _3
REMARK    2  A    between atoms: _3  and  _4
REMARK    3  A    between atoms: _3  and  _6
REMARK    4  A    between atoms: _6  and  _7
REMARK    5  A    between atoms: _10  and  _12
REMARK    6  A    between atoms: _12  and  _13
REMARK    7  A    between atoms: _12  and  _15
REMARK    8  A    between atoms: _15  and  _16
REMARK    9  A    between atoms: _16  and  _17
REMARK   10  A    between atoms: _17  and  _18
REMARK   11  A    between atoms: _18  and  _19
REMARK   12  A    between atoms: _23  and  _25
REMARK   13  A    between atoms: _25  and  _26
REMARK   14  A    between atoms: _25  and  _28
REMARK   15  A    between atoms: _28  and  _29
REMARK   16  A    between atoms: _34  and  _35
REMARK   17  A    between atoms: _37  and  _39
REMARK   18  A    between atoms: _39  and  _40
REMARK   19  A    between atoms: _39  and  _42
REMARK   20  A    between atoms: _42  and  _43
REMARK   21  A    between atoms: _49  and  _51
REMARK   22  A    between atoms: _51  and  _52
REMARK   23  A    between atoms: _51  and  _54
REMARK   24  A    between atoms: _54  and  _55
REMARK   25  A    between atoms: _60  and  _62
REMARK   26  A    between atoms: _62  and  _63
REMARK   27  A    between atoms: _62  and  _65
REMARK   28  A    between atoms: _65  and  _66
REMARK   29  A    between atoms: _72  and  _74
REMARK   30  A    between atoms: _74  and  _75
REMARK   31  A    between atoms: _74  and  _77
REMARK   32  A    between atoms: _77  and  _78
REMARK   33  A    between atoms: _81  and  _83
REMARK   34  A    between atoms: _83  and  _84
REMARK   35  A    between atoms: _83  and  _86
REMARK   36  A    between atoms: _86  and  _87
REMARK   37  A    between atoms: _89  and  _91
REMARK   38  A    between atoms: _91  and  _92
REMARK   39  A    between atoms: _91  and  _94
REMARK   40  A    between atoms: _97  and  _99
REMARK   41  A    between atoms: _99  and  _100
REMARK   42  A    between atoms: _102  and  _104
REMARK   43  A    between atoms: _104  and  _105
REMARK   44  A    between atoms: _104  and  _107
REMARK   45  A    between atoms: _107  and  _108
REMARK   46  A    between atoms: _114  and  _116
REMARK   47  A    between atoms: _116  and  _117
REMARK   48  A    between atoms: _116  and  _119
REMARK   49  A    between atoms: _122  and  _124
REMARK   50  A    between atoms: _124  and  _125
REMARK   51  A    between atoms: _124  and  _127
REMARK   52  A    between atoms: _127  and  _128
REMARK   53  A    between atoms: _128  and  _129
REMARK   54  A    between atoms: _129  and  _130
REMARK   55  A    between atoms: _139  and  _141
REMARK   56  A    between atoms: _141  and  _142
REMARK   57  A    between atoms: _141  and  _144
REMARK   58  A    between atoms: _144  and  _145
REMARK   59  A    between atoms: _151  and  _153
REMARK   60  A    between atoms: _153  and  _154
REMARK   61  A    between atoms: _153  and  _156
REMARK   62  A    between atoms: _156  and  _157
REMARK   63  A    between atoms: _157  and  _158
REMARK   64  A    between atoms: _160  and  _162
REMARK   65  A    between atoms: _162  and  _163
REMARK   66  A    between atoms: _162  and  _165
REMARK   67  A    between atoms: _165  and  _166
REMARK   68  A    between atoms: _171  and  _172
REMARK   69  A    between atoms: _174  and  _176
REMARK   70  A    between atoms: _176  and  _177
REMARK   71  A    between atoms: _176  and  _179
REMARK   72  A    between atoms: _179  and  _180
REMARK   73  A    between atoms: _180  and  _181
REMARK   74  A    between atoms: _181  and  _182
REMARK   75  A    between atoms: _191  and  _193
REMARK   76  A    between atoms: _193  and  _194
REMARK   77  A    between atoms: _193  and  _196
REMARK   78  A    between atoms: _196  and  _197
REMARK   79  A    between atoms: _197  and  _198
REMARK   80  A    between atoms: _201  and  _203
REMARK   81  A    between atoms: _203  and  _204
REMARK   82  A    between atoms: _203  and  _206
REMARK   83  A    between atoms: _206  and  _207
REMARK   84  A    between atoms: _210  and  _212
REMARK   85  A    between atoms: _212  and  _213
REMARK   86  A    between atoms: _212  and  _215
REMARK   87  A    between atoms: _215  and  _216
REMARK   88  A    between atoms: _216  and  _217
REMARK   89  A    between atoms: _217  and  _218
REMARK   90  A    between atoms: _227  and  _229
REMARK   91  A    between atoms: _229  and  _230
REMARK   92  A    between atoms: _229  and  _232
REMARK   93  A    between atoms: _232  and  _233
REMARK   94  A    between atoms: _235  and  _237
REMARK   95  A    between atoms: _237  and  _238
REMARK   96  A    between atoms: _241  and  _243
REMARK   97  A    between atoms: _243  and  _244
REMARK   98  A    between atoms: _243  and  _246
REMARK   99  A    between atoms: _246  and  _247
REMARK  100  A    between atoms: _247  and  _248
REMARK  101  A    between atoms: _248  and  _249
REMARK  102  A    between atoms: _258  and  _260
REMARK  103  A    between atoms: _260  and  _261
REMARK  104  A    between atoms: _260  and  _263
REMARK  105  A    between atoms: _263  and  _264
REMARK  106  A    between atoms: _267  and  _269
REMARK  107  A    between atoms: _269  and  _270
REMARK  108  A    between atoms: _269  and  _272
REMARK  109  A    between atoms: _272  and  _273
REMARK  110  A    between atoms: _276  and  _278
REMARK  111  A    between atoms: _278  and  _279
REMARK  112  A    between atoms: _282  and  _284
REMARK  113  A    between atoms: _284  and  _285
REMARK  114  A    between atoms: _284  and  _287
REMARK  115  A    between atoms: _287  and  _288
REMARK  116  A    between atoms: _288  and  _289
REMARK  117  A    between atoms: _294  and  _296
REMARK  118  A    between atoms: _296  and  _297
REMARK  119  A    between atoms: _296  and  _299
REMARK  120  A    between atoms: _299  and  _300
REMARK  121  A    between atoms: _303  and  _305
REMARK  122  A    between atoms: _305  and  _306
REMARK  123  A    between atoms: _305  and  _308
REMARK  124  A    between atoms: _308  and  _309
REMARK  125  A    between atoms: _315  and  _317
REMARK  126  A    between atoms: _317  and  _318
REMARK  127  A    between atoms: _317  and  _320
REMARK  128  A    between atoms: _320  and  _321
REMARK  129  A    between atoms: _321  and  _322
REMARK  130  A    between atoms: _322  and  _323
REMARK  131  A    between atoms: _332  and  _334
REMARK  132  A    between atoms: _334  and  _335
REMARK  133  A    between atoms: _334  and  _337
REMARK  134  A    between atoms: _340  and  _342
REMARK  135  A    between atoms: _342  and  _343
REMARK  136  A    between atoms: _342  and  _345
REMARK  137  A    between atoms: _345  and  _346
REMARK  138  A    between atoms: _351  and  _353
REMARK  139  A    between atoms: _353  and  _354
REMARK  140  A    between atoms: _353  and  _356
REMARK  141  A    between atoms: _356  and  _357
REMARK  142  A    between atoms: _360  and  _362
REMARK  143  A    between atoms: _362  and  _363
REMARK  144  A    between atoms: _362  and  _365
REMARK  145  A    between atoms: _365  and  _366
REMARK  146  A    between atoms: _366  and  _367
REMARK  147  A    between atoms: _367  and  _368
REMARK  148  A    between atoms: _377  and  _379
REMARK  149  A    between atoms: _379  and  _380
REMARK  150  A    between atoms: _379  and  _382
REMARK  151  A    between atoms: _382  and  _383
REMARK  152  A    between atoms: _386  and  _388
REMARK  153  A    between atoms: _388  and  _389
REMARK  154  A    between atoms: _388  and  _391
REMARK  155  A    between atoms: _391  and  _392
REMARK  156  A    between atoms: _395  and  _397
REMARK  157  A    between atoms: _397  and  _398
REMARK  158  A    between atoms: _397  and  _400
REMARK  159  A    between atoms: _400  and  _401
REMARK  160  A    between atoms: _406  and  _407
REMARK  161  A    between atoms: _409  and  _411
REMARK  162  A    between atoms: _411  and  _412
REMARK  163  A    between atoms: _411  and  _414
REMARK  164  A    between atoms: _414  and  _415
REMARK  165  A    between atoms: _420  and  _421
REMARK  166  A    between atoms: _423  and  _425
REMARK  167  A    between atoms: _425  and  _426
REMARK  168  A    between atoms: _425  and  _428
REMARK  169  A    between atoms: _428  and  _429
REMARK  170  A    between atoms: _432  and  _434
REMARK  171  A    between atoms: _434  and  _435
REMARK  172  A    between atoms: _434  and  _437
REMARK  173  A    between atoms: _437  and  _438
REMARK  174  A    between atoms: _438  and  _439
REMARK  175  A    between atoms: _444  and  _446
REMARK  176  A    between atoms: _446  and  _447
REMARK  177  A    between atoms: _446  and  _449
REMARK  178  A    between atoms: _449  and  _450
REMARK  179  A    between atoms: _460  and  _462
REMARK  180  A    between atoms: _462  and  _463
REMARK  181  A    between atoms: _462  and  _465
REMARK  182  A    between atoms: _465  and  _466
REMARK  183  A    between atoms: _466  and  _467
REMARK  184  A    between atoms: _469  and  _471
REMARK  185  A    between atoms: _471  and  _472
REMARK  186  A    between atoms: _471  and  _474
REMARK  187  A    between atoms: _474  and  _475
REMARK  188  A    between atoms: _480  and  _482
REMARK  189  A    between atoms: _482  and  _483
REMARK  190  A    between atoms: _485  and  _487
REMARK  191  A    between atoms: _487  and  _488
REMARK  192  A    between atoms: _487  and  _490
REMARK  193  A    between atoms: _490  and  _491
REMARK  194  A    between atoms: _491  and  _814
REMARK  195  A    between atoms: _492  and  _494
REMARK  196  A    between atoms: _494  and  _495
REMARK  197  A    between atoms: _494  and  _497
REMARK  198  A    between atoms: _497  and  _498
REMARK  199  A    between atoms: _498  and  _499
REMARK  200  A    between atoms: _502  and  _504
REMARK  201  A    between atoms: _504  and  _505
REMARK  202  A    between atoms: _504  and  _507
REMARK  203  A    between atoms: _507  and  _508
REMARK  204  A    between atoms: _508  and  _509
REMARK  205  A    between atoms: _514  and  _516
REMARK  206  A    between atoms: _516  and  _517
REMARK  207  A    between atoms: _516  and  _519
REMARK  208  A    between atoms: _519  and  _520
REMARK  209  A    between atoms: _526  and  _528
REMARK  210  A    between atoms: _528  and  _529
REMARK  211  A    between atoms: _532  and  _534
REMARK  212  A    between atoms: _534  and  _535
REMARK  213  A    between atoms: _534  and  _537
REMARK  214  A    between atoms: _537  and  _538
REMARK  215  A    between atoms: _543  and  _544
REMARK  216  A    between atoms: _546  and  _548
REMARK  217  A    between atoms: _548  and  _549
REMARK  218  A    between atoms: _548  and  _551
REMARK  219  A    between atoms: _551  and  _552
REMARK  220  A    between atoms: _557  and  _558
REMARK  221  A    between atoms: _560  and  _562
REMARK  222  A    between atoms: _562  and  _563
REMARK  223  A    between atoms: _562  and  _565
REMARK  224  A    between atoms: _565  and  _566
REMARK  225  A    between atoms: _569  and  _571
REMARK  226  A    between atoms: _571  and  _572
REMARK  227  A    between atoms: _571  and  _574
REMARK  228  A    between atoms: _574  and  _575
REMARK  229  A    between atoms: _578  and  _580
REMARK  230  A    between atoms: _580  and  _581
REMARK  231  A    between atoms: _580  and  _583
REMARK  232  A    between atoms: _583  and  _584
REMARK  233  A    between atoms: _587  and  _589
REMARK  234  A    between atoms: _589  and  _590
REMARK  235  A    between atoms: _589  and  _592
REMARK  236  A    between atoms: _592  and  _593
REMARK  237  A    between atoms: _603  and  _605
REMARK  238  A    between atoms: _605  and  _606
REMARK  239  A    between atoms: _605  and  _608
REMARK  240  A    between atoms: _608  and  _609
REMARK  241  A    between atoms: _612  and  _614
REMARK  242  A    between atoms: _614  and  _615
REMARK  243  A    between atoms: _618  and  _620
REMARK  244  A    between atoms: _620  and  _621
REMARK  245  A    between atoms: _624  and  _626
REMARK  246  A    between atoms: _626  and  _627
REMARK  247  A    between atoms: _626  and  _629
REMARK  248  A    between atoms: _629  and  _630
REMARK  249  A    between atoms: _630  and  _631
REMARK  250  A    between atoms: _636  and  _638
REMARK  251  A    between atoms: _638  and  _639
REMARK  252  A    between atoms: _638  and  _641
REMARK  253  A    between atoms: _641  and  _642
REMARK  254  A    between atoms: _645  and  _647
REMARK  255  A    between atoms: _647  and  _648
REMARK  256  A    between atoms: _647  and  _650
REMARK  257  A    between atoms: _650  and  _651
REMARK  258  A    between atoms: _653  and  _655
REMARK  259  A    between atoms: _655  and  _656
REMARK  260  A    between atoms: _655  and  _658
REMARK  261  A    between atoms: _658  and  _659
REMARK  262  A    between atoms: _659  and  _660
REMARK  263  A    between atoms: _663  and  _665
REMARK  264  A    between atoms: _665  and  _666
REMARK  265  A    between atoms: _665  and  _668
REMARK  266  A    between atoms: _668  and  _669
REMARK  267  A    between atoms: _669  and  _670
REMARK  268  A    between atoms: _675  and  _677
REMARK  269  A    between atoms: _677  and  _678
REMARK  270  A    between atoms: _677  and  _680
REMARK  271  A    between atoms: _680  and  _681
REMARK  272  A    between atoms: _681  and  _682
REMARK  273  A    between atoms: _682  and  _683
REMARK  274  A    between atoms: _683  and  _684
REMARK  275  A    between atoms: _688  and  _690
REMARK  276  A    between atoms: _690  and  _691
REMARK  277  A    between atoms: _690  and  _693
REMARK  278  A    between atoms: _693  and  _694
REMARK  279  A    between atoms: _696  and  _698
REMARK  280  A    between atoms: _698  and  _699
REMARK  281  A    between atoms: _698  and  _701
REMARK  282  A    between atoms: _701  and  _702
REMARK  283  A    between atoms: _707  and  _709
REMARK  284  A    between atoms: _709  and  _710
REMARK  285  A    between atoms: _713  and  _715
REMARK  286  A    between atoms: _715  and  _716
REMARK  287  A    between atoms: _715  and  _718
REMARK  288  A    between atoms: _718  and  _719
REMARK  289  A    between atoms: _721  and  _723
REMARK  290  A    between atoms: _723  and  _724
REMARK  291  A    between atoms: _723  and  _726
REMARK  292  A    between atoms: _726  and  _727
REMARK  293  A    between atoms: _727  and  _728
REMARK  294  A    between atoms: _731  and  _733
REMARK  295  A    between atoms: _733  and  _734
REMARK  296  A    between atoms: _737  and  _739
REMARK  297  A    between atoms: _739  and  _740
REMARK  298  A    between atoms: _739  and  _742
REMARK  299  A    between atoms: _742  and  _743
REMARK  300  A    between atoms: _743  and  _744
REMARK  301  A    between atoms: _747  and  _749
REMARK  302  A    between atoms: _749  and  _750
REMARK  303  A    between atoms: _749  and  _752
REMARK  304  A    between atoms: _752  and  _753
REMARK  305  A    between atoms: _758  and  _760
REMARK  306  A    between atoms: _760  and  _761
REMARK  307  A    between atoms: _760  and  _763
REMARK  308  A    between atoms: _763  and  _764
REMARK  309  A    between atoms: _764  and  _765
REMARK  310  A    between atoms: _770  and  _772
REMARK  311  A    between atoms: _772  and  _773
REMARK  312  A    between atoms: _776  and  _778
REMARK  313  A    between atoms: _778  and  _779
REMARK  314  A    between atoms: _778  and  _781
REMARK  315  A    between atoms: _781  and  _782
REMARK  316  A    between atoms: _787  and  _788
REMARK  317  A    between atoms: _790  and  _792
REMARK  318  A    between atoms: _792  and  _793
REMARK  319  A    between atoms: _792  and  _795
REMARK  320  A    between atoms: _795  and  _796
REMARK  321  A    between atoms: _799  and  _801
REMARK  322  A    between atoms: _801  and  _802
REMARK  323  A    between atoms: _801  and  _804
REMARK  324  A    between atoms: _804  and  _805
REMARK  325  A    between atoms: _808  and  _810
REMARK  326  A    between atoms: _810  and  _811
REMARK  327  A    between atoms: _810  and  _813
REMARK  328  A    between atoms: _813  and  _814
REMARK  329  A    between atoms: _815  and  _817
REMARK  330  A    between atoms: _817  and  _818
REMARK  331  A    between atoms: _817  and  _820
REMARK  332  A    between atoms: _823  and  _825
REMARK  333  A    between atoms: _825  and  _826
REMARK  334  A    between atoms: _825  and  _828
REMARK  335  A    between atoms: _828  and  _829
REMARK  336  A    between atoms: _829  and  _830
REMARK  337  A    between atoms: _833  and  _835
REMARK  338  A    between atoms: _835  and  _836
REMARK  339  A    between atoms: _835  and  _838
REMARK  340  A    between atoms: _838  and  _839
REMARK  341  A    between atoms: _849  and  _851
REMARK  342  A    between atoms: _851  and  _852
REMARK  343  A    between atoms: _851  and  _854
REMARK  344  A    between atoms: _854  and  _855
REMARK  345  A    between atoms: _858  and  _860
REMARK  346  A    between atoms: _860  and  _861
REMARK  347  A    between atoms: _860  and  _863
REMARK  348  A    between atoms: _863  and  _864
REMARK  349  A    between atoms: _864  and  _865
REMARK  350  A    between atoms: _865  and  _866
REMARK  351  A    between atoms: _866  and  _867
REMARK  352  A    between atoms: _871  and  _873
REMARK  353  A    between atoms: _873  and  _874
REMARK  354  A    between atoms: _873  and  _876
REMARK  355  A    between atoms: _876  and  _877
REMARK  356  A    between atoms: _882  and  _883
REMARK                            x       y       z     vdW  Elec       q    Type
REMARK                         _______ _______ _______ _____ _____    ______ ____
ROOT
ATOM      1  CA  TYR A   2      25.010  -8.880  20.143  0.00  0.00    +0.153 C 
ENDROOT
BRANCH   1   4
ATOM      2  C   ALA A   1      25.773  -8.394  22.411  0.00  0.00    +0.238 C 
ATOM      3  O   ALA A   1      26.925  -8.069  21.989  0.00  0.00    -0.274 OA
ATOM      4  N   TYR A   2      24.791  -8.850  21.576  0.00  0.00    -0.297 N 
ATOM      5  H   TYR A   2      23.885  -9.176  21.969  0.00  0.00    +0.150 HD
BRANCH   2   6
ATOM      6  CA  ALA A   1      25.449  -8.399  23.892  0.00  0.00    +0.145 C 
ATOM      7  CB  ALA A   1      25.473  -9.807  24.453  0.00  0.00    +0.028 C 
BRANCH   6   8
ATOM      8  N   ALA A   1      24.141  -7.815  24.091  0.00  0.00    -0.238 NA
ATOM      9  H   ALA A   1      23.407  -8.393  24.547  0.00  0.00    +0.142 HD
ENDBRANCH   6   8
ENDBRANCH   2   6
ENDBRANCH   1   4
BRANCH   1  10
ATOM     10  C   TYR A   2      25.258  -7.469  19.576  0.00  0.00    +0.241 C 
ATOM     11  N   LEU A   3      24.411  -6.564  19.884  0.00  0.00    -0.298 N 
ATOM     12  H   LEU A   3      23.618  -6.809  20.510  0.00  0.00    +0.150 HD
ATOM     13  O   TYR A   2      26.192  -7.231  18.914  0.00  0.00    -0.273 OA
BRANCH  11  14
ATOM     14  CA  LEU A   3      24.518  -5.230  19.398  0.00  0.00    +0.137 C 
BRANCH  14  15
ATOM     15  C   LEU A   3      25.715  -4.409  19.883  0.00  0.00    +0.227 C 
ATOM     16  O   LEU A   3      26.239  -3.583  19.092  0.00  0.00    -0.286 OA
ENDBRANCH  14  15
BRANCH  14  17
ATOM     17  CB  LEU A   3      23.240  -4.428  19.854  0.00  0.00    +0.028 C 
BRANCH  17  18
ATOM     18  CG  LEU A   3      21.918  -4.812  19.149  0.00  0.00    +0.002 C 
ATOM     19  CD2 LEU A   3      20.692  -4.109  19.698  0.00  0.00    +0.000 C 
ATOM     20  CD1 LEU A   3      22.065  -4.542  17.710  0.00  0.00    +0.000 C 
ENDBRANCH  17  18
ENDBRANCH  14  17
ENDBRANCH  11  14
ENDBRANCH   1  10
BRANCH   1  21
ATOM     21  CB  TYR A   2      23.832  -9.517  19.414  0.00  0.00    +0.055 C 
BRANCH  21  22
ATOM     22  CG  TYR A   2      23.875  -9.313  17.925  0.00  0.00    -0.020 A 
ATOM     23  CD2 TYR A   2      23.145  -8.280  17.332  0.00  0.00    -0.001 A 
ATOM     24  CE2 TYR A   2      23.255  -8.003  15.987  0.00  0.00    +0.036 A 
ATOM     25  CZ  TYR A   2      24.104  -8.733  15.192  0.00  0.00    +0.134 A 
ATOM     26  CE1 TYR A   2      24.823  -9.839  15.755  0.00  0.00    +0.036 A 
ATOM     27  CD1 TYR A   2      24.698 -10.077  17.166  0.00  0.00    -0.001 A 
BRANCH  25  28
ATOM     28  OH  TYR A   2      24.127  -8.454  13.862  0.00  0.00    -0.506 OA
ATOM     29  HH  TYR A   2      24.777  -9.050  13.412  0.00  0.00    +0.292 HD
ENDBRANCH  25  28
ENDBRANCH  21  22
ENDBRANCH   1  21
TORSDOF 11
REMARK  Name = ../refined-set-2016/3bzf/3bzf_pocket.pdb
REMARK  356 active torsions:
REMARK  status: ('A' for Active; 'I' for Inactive)
REMARK    1  A    between atoms: _1  and  _3
REMARK    2  A    between atoms: _3  and  _4
REMARK    3  A    between atoms: _3  and  _6
REMARK    4  A    between atoms: _6  and  _7
REMARK    5  A    between atoms: _10  and  _12
REMARK    6  A    between atoms: _12  and  _13
REMARK    7  A    between atoms: _12  and  _15
REMARK    8  A    between atoms: _15  and  _16
REMARK    9  A    between atoms: _16  and  _17
REMARK   10  A    between atoms: _17  and  _18
REMARK   11  A    between atoms: _18  and  _19
REMARK   12  A    between atoms: _23  and  _25
REMARK   13  A    between atoms: _25  and  _26
REMARK   14  A    between atoms: _25  and  _28
REMARK   15  A    between atoms: _28  and  _29
REMARK   16  A    between atoms: _34  and  _35
REMARK   17  A    between atoms: _37  and  _39
REMARK   18  A    between atoms: _39  and  _40
REMARK   19  A    between atoms: _39  and  _42
REMARK   20  A    between atoms: _42  and  _43
REMARK   21  A    between atoms: _49  and  _51
REMARK   22  A    between atoms: _51  and  _52
REMARK   23  A    between atoms: _51  and  _54
REMARK   24  A    between atoms: _54  and  _55
REMARK   25  A    between atoms: _60  and  _62
REMARK   26  A    between atoms: _62  and  _63
REMARK   27  A    between atoms: _62  and  _65
REMARK   28  A    between atoms: _65  and  _66
REMARK   29  A    between atoms: _72  and  _74
REMARK   30  A    between atoms: _74  and  _75
REMARK   31  A    between atoms: _74  and  _77
REMARK   32  A    between atoms: _77  and  _78
REMARK   33  A    between atoms: _81  and  _83
REMARK   34  A    between atoms: _83  and  _84
REMARK   35  A    between atoms: _83  and  _86
REMARK   36  A    between atoms: _86  and  _87
REMARK   37  A    between atoms: _89  and  _91
REMARK   38  A    between atoms: _91  and  _92
REMARK   39  A    between atoms: _91  and  _94
REMARK   40  A    between atoms: _97  and  _99
REMARK   41  A    between atoms: _99  and  _100
REMARK   42  A    between atoms: _102  and  _104
REMARK   43  A    between atoms: _104  and  _105
REMARK   44  A    between atoms: _104  and  _107
REMARK   45  A    between atoms: _107  and  _108
REMARK   46  A    between atoms: _114  and  _116
REMARK   47  A    between atoms: _116  and  _117
REMARK   48  A    between atoms: _116  and  _119
REMARK   49  A    between atoms: _122  and  _124
REMARK   50  A    between atoms: _124  and  _125
REMARK   51  A    between atoms: _124  and  _127
REMARK   52  A    between atoms: _127  and  _128
REMARK   53  A    between atoms: _128  and  _129
REMARK   54  A    between atoms: _129  and  _130
REMARK   55  A    between atoms: _139  and  _141
REMARK   56  A    between atoms: _141  and  _142
REMARK   57  A    between atoms: _141  and  _144
REMARK   58  A    between atoms: _144  and  _145
REMARK   59  A    between atoms: _151  and  _153
REMARK   60  A    between atoms: _153  and  _154
REMARK   61  A    between atoms: _153  and  _156
REMARK   62  A    between atoms: _156  and  _157
REMARK   63  A    between atoms: _157  and  _158
REMARK   64  A    between atoms: _160  and  _162
REMARK   65  A    between atoms: _162  and  _163
REMARK   66  A    between atoms: _162  and  _165
REMARK   67  A    between atoms: _165  and  _166
REMARK   68  A    between atoms: _171  and  _172
REMARK   69  A    between atoms: _174  and  _176
REMARK   70  A    between atoms: _176  and  _177
REMARK   71  A    between atoms: _176  and  _179
REMARK   72  A    between atoms: _179  and  _180
REMARK   73  A    between atoms: _180  and  _181
REMARK   74  A    between atoms: _181  and  _182
REMARK   75  A    between atoms: _191  and  _193
REMARK   76  A    between atoms: _193  and  _194
REMARK   77  A    between atoms: _193  and  _196
REMARK   78  A    between atoms: _196  and  _197
REMARK   79  A    between atoms: _197  and  _198
REMARK   80  A    between atoms: _201  and  _203
REMARK   81  A    between atoms: _203  and  _204
REMARK   82  A    between atoms: _203  and  _206
REMARK   83  A    between atoms: _206  and  _207
REMARK   84  A    between atoms: _210  and  _212
REMARK   85  A    between atoms: _212  and  _213
REMARK   86  A    between atoms: _212  and  _215
REMARK   87  A    between atoms: _215  and  _216
REMARK   88  A    between atoms: _216  and  _217
REMARK   89  A    between atoms: _217  and  _218
REMARK   90  A    between atoms: _227  and  _229
REMARK   91  A    between atoms: _229  and  _230
REMARK   92  A    between atoms: _229  and  _232
REMARK   93  A    between atoms: _232  and  _233
REMARK   94  A    between atoms: _235  and  _237
REMARK   95  A    between atoms: _237  and  _238
REMARK   96  A    between atoms: _241  and  _243
REMARK   97  A    between atoms: _243  and  _244
REMARK   98  A    between atoms: _243  and  _246
REMARK   99  A    between atoms: _246  and  _247
REMARK  100  A    between atoms: _247  and  _248
REMARK  101  A    between atoms: _248  and  _249
REMARK  102  A    between atoms: _258  and  _260
REMARK  103  A    between atoms: _260  and  _261
REMARK  104  A    between atoms: _260  and  _263
REMARK  105  A    between atoms: _263  and  _264
REMARK  106  A    between atoms: _267  and  _269
REMARK  107  A    between atoms: _269  and  _270
REMARK  108  A    between atoms: _269  and  _272
REMARK  109  A    between atoms: _272  and  _273
REMARK  110  A    between atoms: _276  and  _278
REMARK  111  A    between atoms: _278  and  _279
REMARK  112  A    between atoms: _282  and  _284
REMARK  113  A    between atoms: _284  and  _285
REMARK  114  A    between atoms: _284  and  _287
REMARK  115  A    between atoms: _287  and  _288
REMARK  116  A    between atoms: _288  and  _289
REMARK  117  A    between atoms: _294  and  _296
REMARK  118  A    between atoms: _296  and  _297
REMARK  119  A    between atoms: _296  and  _299
REMARK  120  A    between atoms: _299  and  _300
REMARK  121  A    between atoms: _303  and  _305
REMARK  122  A    between atoms: _305  and  _306
REMARK  123  A    between atoms: _305  and  _308
REMARK  124  A    between atoms: _308  and  _309
REMARK  125  A    between atoms: _315  and  _317
REMARK  126  A    between atoms: _317  and  _318
REMARK  127  A    between atoms: _317  and  _320
REMARK  128  A    between atoms: _320  and  _321
REMARK  129  A    between atoms: _321  and  _322
REMARK  130  A    between atoms: _322  and  _323
REMARK  131  A    between atoms: _332  and  _334
REMARK  132  A    between atoms: _334  and  _335
REMARK  133  A    between atoms: _334  and  _337
REMARK  134  A    between atoms: _340  and  _342
REMARK  135  A    between atoms: _342  and  _343
REMARK  136  A    between atoms: _342  and  _345
REMARK  137  A    between atoms: _345  and  _346
REMARK  138  A    between atoms: _351  and  _353
REMARK  139  A    between atoms: _353  and  _354
REMARK  140  A    between atoms: _353  and  _356
REMARK  141  A    between atoms: _356  and  _357
REMARK  142  A    between atoms: _360  and  _362
REMARK  143  A    between atoms: _362  and  _363
REMARK  144  A    between atoms: _362  and  _365
REMARK  145  A    between atoms: _365  and  _366
REMARK  146  A    between atoms: _366  and  _367
REMARK  147  A    between atoms: _367  and  _368
REMARK  148  A    between atoms: _377  and  _379
REMARK  149  A    between atoms: _379  and  _380
REMARK  150  A    between atoms: _379  and  _382
REMARK  151  A    between atoms: _382  and  _383
REMARK  152  A    between atoms: _386  and  _388
REMARK  153  A    between atoms: _388  and  _389
REMARK  154  A    between atoms: _388  and  _391
REMARK  155  A    between atoms: _391  and  _392
REMARK  156  A    between atoms: _395  and  _397
REMARK  157  A    between atoms: _397  and  _398
REMARK  158  A    between atoms: _397  and  _400
REMARK  159  A    between atoms: _400  and  _401
REMARK  160  A    between atoms: _406  and  _407
REMARK  161  A    between atoms: _409  and  _411
REMARK  162  A    between atoms: _411  and  _412
REMARK  163  A    between atoms: _411  and  _414
REMARK  164  A    between atoms: _414  and  _415
REMARK  165  A    between atoms: _420  and  _421
REMARK  166  A    between atoms: _423  and  _425
REMARK  167  A    between atoms: _425  and  _426
REMARK  168  A    between atoms: _425  and  _428
REMARK  169  A    between atoms: _428  and  _429
REMARK  170  A    between atoms: _432  and  _434
REMARK  171  A    between atoms: _434  and  _435
REMARK  172  A    between atoms: _434  and  _437
REMARK  173  A    between atoms: _437  and  _438
REMARK  174  A    between atoms: _438  and  _439
REMARK  175  A    between atoms: _444  and  _446
REMARK  176  A    between atoms: _446  and  _447
REMARK  177  A    between atoms: _446  and  _449
REMARK  178  A    between atoms: _449  and  _450
REMARK  179  A    between atoms: _460  and  _462
REMARK  180  A    between atoms: _462  and  _463
REMARK  181  A    between atoms: _462  and  _465
REMARK  182  A    between atoms: _465  and  _466
REMARK  183  A    between atoms: _466  and  _467
REMARK  184  A    between atoms: _469  and  _471
REMARK  185  A    between atoms: _471  and  _472
REMARK  186  A    between atoms: _471  and  _474
REMARK  187  A    between atoms: _474  and  _475
REMARK  188  A    between atoms: _480  and  _482
REMARK  189  A    between atoms: _482  and  _483
REMARK  190  A    between atoms: _485  and  _487
REMARK  191  A    between atoms: _487  and  _488
REMARK  192  A    between atoms: _487  and  _490
REMARK  193  A    between atoms: _490  and  _491
REMARK  194  A    between atoms: _491  and  _814
REMARK  195  A    between atoms: _492  and  _494
REMARK  196  A    between atoms: _494  and  _495
REMARK  197  A    between atoms: _494  and  _497
REMARK  198  A    between atoms: _497  and  _498
REMARK  199  A    between atoms: _498  and  _499
REMARK  200  A    between atoms: _502  and  _504
REMARK  201  A    between atoms: _504  and  _505
REMARK  202  A    between atoms: _504  and  _507
REMARK  203  A    between atoms: _507  and  _508
REMARK  204  A    between atoms: _508  and  _509
REMARK  205  A    between atoms: _514  and  _516
REMARK  206  A    between atoms: _516  and  _517
REMARK  207  A    between atoms: _516  and  _519
REMARK  208  A    between atoms: _519  and  _520
REMARK  209  A    between atoms: _526  and  _528
REMARK  210  A    between atoms: _528  and  _529
REMARK  211  A    between atoms: _532  and  _534
REMARK  212  A    between atoms: _534  and  _535
REMARK  213  A    between atoms: _534  and  _537
REMARK  214  A    between atoms: _537  and  _538
REMARK  215  A    between atoms: _543  and  _544
REMARK  216  A    between atoms: _546  and  _548
REMARK  217  A    between atoms: _548  and  _549
REMARK  218  A    between atoms: _548  and  _551
REMARK  219  A    between atoms: _551  and  _552
REMARK  220  A    between atoms: _557  and  _558
REMARK  221  A    between atoms: _560  and  _562
REMARK  222  A    between atoms: _562  and  _563
REMARK  223  A    between atoms: _562  and  _565
REMARK  224  A    between atoms: _565  and  _566
REMARK  225  A    between atoms: _569  and  _571
REMARK  226  A    between atoms: _571  and  _572
REMARK  227  A    between atoms: _571  and  _574
REMARK  228  A    between atoms: _574  and  _575
REMARK  229  A    between atoms: _578  and  _580
REMARK  230  A    between atoms: _580  and  _581
REMARK  231  A    between atoms: _580  and  _583
REMARK  232  A    between atoms: _583  and  _584
REMARK  233  A    between atoms: _587  and  _589
REMARK  234  A    between atoms: _589  and  _590
REMARK  235  A    between atoms: _589  and  _592
REMARK  236  A    between atoms: _592  and  _593
REMARK  237  A    between atoms: _603  and  _605
REMARK  238  A    between atoms: _605  and  _606
REMARK  239  A    between atoms: _605  and  _608
REMARK  240  A    between atoms: _608  and  _609
REMARK  241  A    between atoms: _612  and  _614
REMARK  242  A    between atoms: _614  and  _615
REMARK  243  A    between atoms: _618  and  _620
REMARK  244  A    between atoms: _620  and  _621
REMARK  245  A    between atoms: _624  and  _626
REMARK  246  A    between atoms: _626  and  _627
REMARK  247  A    between atoms: _626  and  _629
REMARK  248  A    between atoms: _629  and  _630
REMARK  249  A    between atoms: _630  and  _631
REMARK  250  A    between atoms: _636  and  _638
REMARK  251  A    between atoms: _638  and  _639
REMARK  252  A    between atoms: _638  and  _641
REMARK  253  A    between atoms: _641  and  _642
REMARK  254  A    between atoms: _645  and  _647
REMARK  255  A    between atoms: _647  and  _648
REMARK  256  A    between atoms: _647  and  _650
REMARK  257  A    between atoms: _650  and  _651
REMARK  258  A    between atoms: _653  and  _655
REMARK  259  A    between atoms: _655  and  _656
REMARK  260  A    between atoms: _655  and  _658
REMARK  261  A    between atoms: _658  and  _659
REMARK  262  A    between atoms: _659  and  _660
REMARK  263  A    between atoms: _663  and  _665
REMARK  264  A    between atoms: _665  and  _666
REMARK  265  A    between atoms: _665  and  _668
REMARK  266  A    between atoms: _668  and  _669
REMARK  267  A    between atoms: _669  and  _670
REMARK  268  A    between atoms: _675  and  _677
REMARK  269  A    between atoms: _677  and  _678
REMARK  270  A    between atoms: _677  and  _680
REMARK  271  A    between atoms: _680  and  _681
REMARK  272  A    between atoms: _681  and  _682
REMARK  273  A    between atoms: _682  and  _683
REMARK  274  A    between atoms: _683  and  _684
REMARK  275  A    between atoms: _688  and  _690
REMARK  276  A    between atoms: _690  and  _691
REMARK  277  A    between atoms: _690  and  _693
REMARK  278  A    between atoms: _693  and  _694
REMARK  279  A    between atoms: _696  and  _698
REMARK  280  A    between atoms: _698  and  _699
REMARK  281  A    between atoms: _698  and  _701
REMARK  282  A    between atoms: _701  and  _702
REMARK  283  A    between atoms: _707  and  _709
REMARK  284  A    between atoms: _709  and  _710
REMARK  285  A    between atoms: _713  and  _715
REMARK  286  A    between atoms: _715  and  _716
REMARK  287  A    between atoms: _715  and  _718
REMARK  288  A    between atoms: _718  and  _719
REMARK  289  A    between atoms: _721  and  _723
REMARK  290  A    between atoms: _723  and  _724
REMARK  291  A    between atoms: _723  and  _726
REMARK  292  A    between atoms: _726  and  _727
REMARK  293  A    between atoms: _727  and  _728
REMARK  294  A    between atoms: _731  and  _733
REMARK  295  A    between atoms: _733  and  _734
REMARK  296  A    between atoms: _737  and  _739
REMARK  297  A    between atoms: _739  and  _740
REMARK  298  A    between atoms: _739  and  _742
REMARK  299  A    between atoms: _742  and  _743
REMARK  300  A    between atoms: _743  and  _744
REMARK  301  A    between atoms: _747  and  _749
REMARK  302  A    between atoms: _749  and  _750
REMARK  303  A    between atoms: _749  and  _752
REMARK  304  A    between atoms: _752  and  _753
REMARK  305  A    between atoms: _758  and  _760
REMARK  306  A    between atoms: _760  and  _761
REMARK  307  A    between atoms: _760  and  _763
REMARK  308  A    between atoms: _763  and  _764
REMARK  309  A    between atoms: _764  and  _765
REMARK  310  A    between atoms: _770  and  _772
REMARK  311  A    between atoms: _772  and  _773
REMARK  312  A    between atoms: _776  and  _778
REMARK  313  A    between atoms: _778  and  _779
REMARK  314  A    between atoms: _778  and  _781
REMARK  315  A    between atoms: _781  and  _782
REMARK  316  A    between atoms: _787  and  _788
REMARK  317  A    between atoms: _790  and  _792
REMARK  318  A    between atoms: _792  and  _793
REMARK  319  A    between atoms: _792  and  _795
REMARK  320  A    between atoms: _795  and  _796
REMARK  321  A    between atoms: _799  and  _801
REMARK  322  A    between atoms: _801  and  _802
REMARK  323  A    between atoms: _801  and  _804
REMARK  324  A    between atoms: _804  and  _805
REMARK  325  A    between atoms: _808  and  _810
REMARK  326  A    between atoms: _810  and  _811
REMARK  327  A    between atoms: _810  and  _813
REMARK  328  A    between atoms: _813  and  _814
REMARK  329  A    between atoms: _815  and  _817
REMARK  330  A    between atoms: _817  and  _818
REMARK  331  A    between atoms: _817  and  _820
REMARK  332  A    between atoms: _823  and  _825
REMARK  333  A    between atoms: _825  and  _826
REMARK  334  A    between atoms: _825  and  _828
REMARK  335  A    between atoms: _828  and  _829
REMARK  336  A    between atoms: _829  and  _830
REMARK  337  A    between atoms: _833  and  _835
REMARK  338  A    between atoms: _835  and  _836
REMARK  339  A    between atoms: _835  and  _838
REMARK  340  A    between atoms: _838  and  _839
REMARK  341  A    between atoms: _849  and  _851
REMARK  342  A    between atoms: _851  and  _852
REMARK  343  A    between atoms: _851  and  _854
REMARK  344  A    between atoms: _854  and  _855
REMARK  345  A    between atoms: _858  and  _860
REMARK  346  A    between atoms: _860  and  _861
REMARK  347  A    between atoms: _860  and  _863
REMARK  348  A    between atoms: _863  and  _864
REMARK  349  A    between atoms: _864  and  _865
REMARK  350  A    between atoms: _865  and  _866
REMARK  351  A    between atoms: _866  and  _867
REMARK  352  A    between atoms: _871  and  _873
REMARK  353  A    between atoms: _873  and  _874
REMARK  354  A    between atoms: _873  and  _876
REMARK  355  A    between atoms: _876  and  _877
REMARK  356  A    between atoms: _882  and  _883
REMARK                            x       y       z     vdW  Elec       q    Type
REMARK                         _______ _______ _______ _____ _____    ______ ____
ROOT
ATOM      1  C   LYS A   1      35.283  -7.224   8.616  0.00  0.00    +0.238 C 
ATOM      2  N   TYR A   2      33.996  -6.864   8.514  0.00  0.00    -0.298 N 
ATOM      3  H   TYR A   2      33.390  -6.753   9.352  0.00  0.00    +0.150 HD
ATOM      4  O   LYS A   1      36.058  -7.343   7.613  0.00  0.00    -0.274 OA
ENDROOT
BRANCH   1   5
ATOM      5  CA  LYS A   1      35.771  -7.546   9.999  0.00  0.00    +0.145 C 
BRANCH   5   6
ATOM      6  N   LYS A   1      35.165  -6.577  10.867  0.00  0.00    -0.238 NA
ATOM      7  H   LYS A   1      34.410  -6.835  11.534  0.00  0.00    +0.142 HD
ENDBRANCH   5   6
BRANCH   5   8
ATOM      8  CB  LYS A   1      35.413  -8.989  10.363  0.00  0.00    +0.026 C 
BRANCH   8   9
ATOM      9  CG  LYS A   1      35.863  -9.519  11.749  0.00  0.00    -0.000 C 
BRANCH   9  10
ATOM     10  CD  LYS A   1      35.796 -11.003  11.754  0.00  0.00    -0.024 C 
BRANCH  10  11
ATOM     11  CE  LYS A   1      36.771 -11.541  12.822  0.00  0.00    -0.086 C 
BRANCH  11  12
ATOM     12  NZ  LYS A   1      36.789 -10.930  14.177  0.00  0.00    +0.380 N 
ATOM     13  HZ1 LYS A   1      37.500 -11.412  14.764  0.00  0.00    -0.089 HD
ATOM     14  HZ2 LYS A   1      35.851 -11.031  14.614  0.00  0.00    -0.089 HD
ATOM     15  HZ3 LYS A   1      37.029  -9.921  14.098  0.00  0.00    -0.089 HD
ENDBRANCH  11  12
ENDBRANCH  10  11
ENDBRANCH   9  10
ENDBRANCH   8   9
ENDBRANCH   5   8
ENDBRANCH   1   5
BRANCH   2  16
ATOM     16  CA  TYR A   2      33.498  -6.639   7.179  0.00  0.00    +0.141 C 
BRANCH  16  17
ATOM     17  C   TYR A   2      34.176  -5.414   6.491  0.00  0.00    +0.227 C 
ATOM     18  O   TYR A   2      34.523  -5.495   5.387  0.00  0.00    -0.286 OA
ENDBRANCH  16  17
BRANCH  16  19
ATOM     19  CB  TYR A   2      31.977  -6.436   7.208  0.00  0.00    +0.054 C 
BRANCH  19  20
ATOM     20  CG  TYR A   2      31.233  -7.665   7.614  0.00  0.00    -0.020 A 
ATOM     21  CD2 TYR A   2      30.158  -7.596   8.475  0.00  0.00    -0.001 A 
ATOM     22  CE2 TYR A   2      29.458  -8.679   8.807  0.00  0.00    +0.036 A 
ATOM     23  CZ  TYR A   2      29.810  -9.966   8.349  0.00  0.00    +0.134 A 
ATOM     24  CE1 TYR A   2      30.822 -10.061   7.428  0.00  0.00    +0.036 A 
ATOM     25  CD1 TYR A   2      31.529  -8.883   7.049  0.00  0.00    -0.001 A 
BRANCH  23  26
ATOM     26  OH  TYR A   2      29.080 -11.104   8.719  0.00  0.00    -0.506 OA
ATOM     27  HH  TYR A   2      29.483 -11.904   8.298  0.00  0.00    +0.292 HD
ENDBRANCH  23  26
ENDBRANCH  19  20
ENDBRANCH  16  19
ENDBRANCH   2  16
TORSDOF 12
REMARK  Name = ../refined-set-2016/3bzf/3bzf_pocket.pdb
REMARK  356 active torsions:
REMARK  status: ('A' for Active; 'I' for Inactive)
REMARK    1  A    between atoms: _1  and  _3
REMARK    2  A    between atoms: _3  and  _4
REMARK    3  A    between atoms: _3  and  _6
REMARK    4  A    between atoms: _6  and  _7
REMARK    5  A    between atoms: _10  and  _12
REMARK    6  A    between atoms: _12  and  _13
REMARK    7  A    between atoms: _12  and  _15
REMARK    8  A    between atoms: _15  and  _16
REMARK    9  A    between atoms: _16  and  _17
REMARK   10  A    between atoms: _17  and  _18
REMARK   11  A    between atoms: _18  and  _19
REMARK   12  A    between atoms: _23  and  _25
REMARK   13  A    between atoms: _25  and  _26
REMARK   14  A    between atoms: _25  and  _28
REMARK   15  A    between atoms: _28  and  _29
REMARK   16  A    between atoms: _34  and  _35
REMARK   17  A    between atoms: _37  and  _39
REMARK   18  A    between atoms: _39  and  _40
REMARK   19  A    between atoms: _39  and  _42
REMARK   20  A    between atoms: _42  and  _43
REMARK   21  A    between atoms: _49  and  _51
REMARK   22  A    between atoms: _51  and  _52
REMARK   23  A    between atoms: _51  and  _54
REMARK   24  A    between atoms: _54  and  _55
REMARK   25  A    between atoms: _60  and  _62
REMARK   26  A    between atoms: _62  and  _63
REMARK   27  A    between atoms: _62  and  _65
REMARK   28  A    between atoms: _65  and  _66
REMARK   29  A    between atoms: _72  and  _74
REMARK   30  A    between atoms: _74  and  _75
REMARK   31  A    between atoms: _74  and  _77
REMARK   32  A    between atoms: _77  and  _78
REMARK   33  A    between atoms: _81  and  _83
REMARK   34  A    between atoms: _83  and  _84
REMARK   35  A    between atoms: _83  and  _86
REMARK   36  A    between atoms: _86  and  _87
REMARK   37  A    between atoms: _89  and  _91
REMARK   38  A    between atoms: _91  and  _92
REMARK   39  A    between atoms: _91  and  _94
REMARK   40  A    between atoms: _97  and  _99
REMARK   41  A    between atoms: _99  and  _100
REMARK   42  A    between atoms: _102  and  _104
REMARK   43  A    between atoms: _104  and  _105
REMARK   44  A    between atoms: _104  and  _107
REMARK   45  A    between atoms: _107  and  _108
REMARK   46  A    between atoms: _114  and  _116
REMARK   47  A    between atoms: _116  and  _117
REMARK   48  A    between atoms: _116  and  _119
REMARK   49  A    between atoms: _122  and  _124
REMARK   50  A    between atoms: _124  and  _125
REMARK   51  A    between atoms: _124  and  _127
REMARK   52  A    between atoms: _127  and  _128
REMARK   53  A    between atoms: _128  and  _129
REMARK   54  A    between atoms: _129  and  _130
REMARK   55  A    between atoms: _139  and  _141
REMARK   56  A    between atoms: _141  and  _142
REMARK   57  A    between atoms: _141  and  _144
REMARK   58  A    between atoms: _144  and  _145
REMARK   59  A    between atoms: _151  and  _153
REMARK   60  A    between atoms: _153  and  _154
REMARK   61  A    between atoms: _153  and  _156
REMARK   62  A    between atoms: _156  and  _157
REMARK   63  A    between atoms: _157  and  _158
REMARK   64  A    between atoms: _160  and  _162
REMARK   65  A    between atoms: _162  and  _163
REMARK   66  A    between atoms: _162  and  _165
REMARK   67  A    between atoms: _165  and  _166
REMARK   68  A    between atoms: _171  and  _172
REMARK   69  A    between atoms: _174  and  _176
REMARK   70  A    between atoms: _176  and  _177
REMARK   71  A    between atoms: _176  and  _179
REMARK   72  A    between atoms: _179  and  _180
REMARK   73  A    between atoms: _180  and  _181
REMARK   74  A    between atoms: _181  and  _182
REMARK   75  A    between atoms: _191  and  _193
REMARK   76  A    between atoms: _193  and  _194
REMARK   77  A    between atoms: _193  and  _196
REMARK   78  A    between atoms: _196  and  _197
REMARK   79  A    between atoms: _197  and  _198
REMARK   80  A    between atoms: _201  and  _203
REMARK   81  A    between atoms: _203  and  _204
REMARK   82  A    between atoms: _203  and  _206
REMARK   83  A    between atoms: _206  and  _207
REMARK   84  A    between atoms: _210  and  _212
REMARK   85  A    between atoms: _212  and  _213
REMARK   86  A    between atoms: _212  and  _215
REMARK   87  A    between atoms: _215  and  _216
REMARK   88  A    between atoms: _216  and  _217
REMARK   89  A    between atoms: _217  and  _218
REMARK   90  A    between atoms: _227  and  _229
REMARK   91  A    between atoms: _229  and  _230
REMARK   92  A    between atoms: _229  and  _232
REMARK   93  A    between atoms: _232  and  _233
REMARK   94  A    between atoms: _235  and  _237
REMARK   95  A    between atoms: _237  and  _238
REMARK   96  A    between atoms: _241  and  _243
REMARK   97  A    between atoms: _243  and  _244
REMARK   98  A    between atoms: _243  and  _246
REMARK   99  A    between atoms: _246  and  _247
REMARK  100  A    between atoms: _247  and  _248
REMARK  101  A    between atoms: _248  and  _249
REMARK  102  A    between atoms: _258  and  _260
REMARK  103  A    between atoms: _260  and  _261
REMARK  104  A    between atoms: _260  and  _263
REMARK  105  A    between atoms: _263  and  _264
REMARK  106  A    between atoms: _267  and  _269
REMARK  107  A    between atoms: _269  and  _270
REMARK  108  A    between atoms: _269  and  _272
REMARK  109  A    between atoms: _272  and  _273
REMARK  110  A    between atoms: _276  and  _278
REMARK  111  A    between atoms: _278  and  _279
REMARK  112  A    between atoms: _282  and  _284
REMARK  113  A    between atoms: _284  and  _285
REMARK  114  A    between atoms: _284  and  _287
REMARK  115  A    between atoms: _287  and  _288
REMARK  116  A    between atoms: _288  and  _289
REMARK  117  A    between atoms: _294  and  _296
REMARK  118  A    between atoms: _296  and  _297
REMARK  119  A    between atoms: _296  and  _299
REMARK  120  A    between atoms: _299  and  _300
REMARK  121  A    between atoms: _303  and  _305
REMARK  122  A    between atoms: _305  and  _306
REMARK  123  A    between atoms: _305  and  _308
REMARK  124  A    between atoms: _308  and  _309
REMARK  125  A    between atoms: _315  and  _317
REMARK  126  A    between atoms: _317  and  _318
REMARK  127  A    between atoms: _317  and  _320
REMARK  128  A    between atoms: _320  and  _321
REMARK  129  A    between atoms: _321  and  _322
REMARK  130  A    between atoms: _322  and  _323
REMARK  131  A    between atoms: _332  and  _334
REMARK  132  A    between atoms: _334  and  _335
REMARK  133  A    between atoms: _334  and  _337
REMARK  134  A    between atoms: _340  and  _342
REMARK  135  A    between atoms: _342  and  _343
REMARK  136  A    between atoms: _342  and  _345
REMARK  137  A    between atoms: _345  and  _346
REMARK  138  A    between atoms: _351  and  _353
REMARK  139  A    between atoms: _353  and  _354
REMARK  140  A    between atoms: _353  and  _356
REMARK  141  A    between atoms: _356  and  _357
REMARK  142  A    between atoms: _360  and  _362
REMARK  143  A    between atoms: _362  and  _363
REMARK  144  A    between atoms: _362  and  _365
REMARK  145  A    between atoms: _365  and  _366
REMARK  146  A    between atoms: _366  and  _367
REMARK  147  A    between atoms: _367  and  _368
REMARK  148  A    between atoms: _377  and  _379
REMARK  149  A    between atoms: _379  and  _380
REMARK  150  A    between atoms: _379  and  _382
REMARK  151  A    between atoms: _382  and  _383
REMARK  152  A    between atoms: _386  and  _388
REMARK  153  A    between atoms: _388  and  _389
REMARK  154  A    between atoms: _388  and  _391
REMARK  155  A    between atoms: _391  and  _392
REMARK  156  A    between atoms: _395  and  _397
REMARK  157  A    between atoms: _397  and  _398
REMARK  158  A    between atoms: _397  and  _400
REMARK  159  A    between atoms: _400  and  _401
REMARK  160  A    between atoms: _406  and  _407
REMARK  161  A    between atoms: _409  and  _411
REMARK  162  A    between atoms: _411  and  _412
REMARK  163  A    between atoms: _411  and  _414
REMARK  164  A    between atoms: _414  and  _415
REMARK  165  A    between atoms: _420  and  _421
REMARK  166  A    between atoms: _423  and  _425
REMARK  167  A    between atoms: _425  and  _426
REMARK  168  A    between atoms: _425  and  _428
REMARK  169  A    between atoms: _428  and  _429
REMARK  170  A    between atoms: _432  and  _434
REMARK  171  A    between atoms: _434  and  _435
REMARK  172  A    between atoms: _434  and  _437
REMARK  173  A    between atoms: _437  and  _438
REMARK  174  A    between atoms: _438  and  _439
REMARK  175  A    between atoms: _444  and  _446
REMARK  176  A    between atoms: _446  and  _447
REMARK  177  A    between atoms: _446  and  _449
REMARK  178  A    between atoms: _449  and  _450
REMARK  179  A    between atoms: _460  and  _462
REMARK  180  A    between atoms: _462  and  _463
REMARK  181  A    between atoms: _462  and  _465
REMARK  182  A    between atoms: _465  and  _466
REMARK  183  A    between atoms: _466  and  _467
REMARK  184  A    between atoms: _469  and  _471
REMARK  185  A    between atoms: _471  and  _472
REMARK  186  A    between atoms: _471  and  _474
REMARK  187  A    between atoms: _474  and  _475
REMARK  188  A    between atoms: _480  and  _482
REMARK  189  A    between atoms: _482  and  _483
REMARK  190  A    between atoms: _485  and  _487
REMARK  191  A    between atoms: _487  and  _488
REMARK  192  A    between atoms: _487  and  _490
REMARK  193  A    between atoms: _490  and  _491
REMARK  194  A    between atoms: _491  and  _814
REMARK  195  A    between atoms: _492  and  _494
REMARK  196  A    between atoms: _494  and  _495
REMARK  197  A    between atoms: _494  and  _497
REMARK  198  A    between atoms: _497  and  _498
REMARK  199  A    between atoms: _498  and  _499
REMARK  200  A    between atoms: _502  and  _504
REMARK  201  A    between atoms: _504  and  _505
REMARK  202  A    between atoms: _504  and  _507
REMARK  203  A    between atoms: _507  and  _508
REMARK  204  A    between atoms: _508  and  _509
REMARK  205  A    between atoms: _514  and  _516
REMARK  206  A    between atoms: _516  and  _517
REMARK  207  A    between atoms: _516  and  _519
REMARK  208  A    between atoms: _519  and  _520
REMARK  209  A    between atoms: _526  and  _528
REMARK  210  A    between atoms: _528  and  _529
REMARK  211  A    between atoms: _532  and  _534
REMARK  212  A    between atoms: _534  and  _535
REMARK  213  A    between atoms: _534  and  _537
REMARK  214  A    between atoms: _537  and  _538
REMARK  215  A    between atoms: _543  and  _544
REMARK  216  A    between atoms: _546  and  _548
REMARK  217  A    between atoms: _548  and  _549
REMARK  218  A    between atoms: _548  and  _551
REMARK  219  A    between atoms: _551  and  _552
REMARK  220  A    between atoms: _557  and  _558
REMARK  221  A    between atoms: _560  and  _562
REMARK  222  A    between atoms: _562  and  _563
REMARK  223  A    between atoms: _562  and  _565
REMARK  224  A    between atoms: _565  and  _566
REMARK  225  A    between atoms: _569  and  _571
REMARK  226  A    between atoms: _571  and  _572
REMARK  227  A    between atoms: _571  and  _574
REMARK  228  A    between atoms: _574  and  _575
REMARK  229  A    between atoms: _578  and  _580
REMARK  230  A    between atoms: _580  and  _581
REMARK  231  A    between atoms: _580  and  _583
REMARK  232  A    between atoms: _583  and  _584
REMARK  233  A    between atoms: _587  and  _589
REMARK  234  A    between atoms: _589  and  _590
REMARK  235  A    between atoms: _589  and  _592
REMARK  236  A    between atoms: _592  and  _593
REMARK  237  A    between atoms: _603  and  _605
REMARK  238  A    between atoms: _605  and  _606
REMARK  239  A    between atoms: _605  and  _608
REMARK  240  A    between atoms: _608  and  _609
REMARK  241  A    between atoms: _612  and  _614
REMARK  242  A    between atoms: _614  and  _615
REMARK  243  A    between atoms: _618  and  _620
REMARK  244  A    between atoms: _620  and  _621
REMARK  245  A    between atoms: _624  and  _626
REMARK  246  A    between atoms: _626  and  _627
REMARK  247  A    between atoms: _626  and  _629
REMARK  248  A    between atoms: _629  and  _630
REMARK  249  A    between atoms: _630  and  _631
REMARK  250  A    between atoms: _636  and  _638
REMARK  251  A    between atoms: _638  and  _639
REMARK  252  A    between atoms: _638  and  _641
REMARK  253  A    between atoms: _641  and  _642
REMARK  254  A    between atoms: _645  and  _647
REMARK  255  A    between atoms: _647  and  _648
REMARK  256  A    between atoms: _647  and  _650
REMARK  257  A    between atoms: _650  and  _651
REMARK  258  A    between atoms: _653  and  _655
REMARK  259  A    between atoms: _655  and  _656
REMARK  260  A    between atoms: _655  and  _658
REMARK  261  A    between atoms: _658  and  _659
REMARK  262  A    between atoms: _659  and  _660
REMARK  263  A    between atoms: _663  and  _665
REMARK  264  A    between atoms: _665  and  _666
REMARK  265  A    between atoms: _665  and  _668
REMARK  266  A    between atoms: _668  and  _669
REMARK  267  A    between atoms: _669  and  _670
REMARK  268  A    between atoms: _675  and  _677
REMARK  269  A    between atoms: _677  and  _678
REMARK  270  A    between atoms: _677  and  _680
REMARK  271  A    between atoms: _680  and  _681
REMARK  272  A    between atoms: _681  and  _682
REMARK  273  A    between atoms: _682  and  _683
REMARK  274  A    between atoms: _683  and  _684
REMARK  275  A    between atoms: _688  and  _690
REMARK  276  A    between atoms: _690  and  _691
REMARK  277  A    between atoms: _690  and  _693
REMARK  278  A    between atoms: _693  and  _694
REMARK  279  A    between atoms: _696  and  _698
REMARK  280  A    between atoms: _698  and  _699
REMARK  281  A    between atoms: _698  and  _701
REMARK  282  A    between atoms: _701  and  _702
REMARK  283  A    between atoms: _707  and  _709
REMARK  284  A    between atoms: _709  and  _710
REMARK  285  A    between atoms: _713  and  _715
REMARK  286  A    between atoms: _715  and  _716
REMARK  287  A    between atoms: _715  and  _718
REMARK  288  A    between atoms: _718  and  _719
REMARK  289  A    between atoms: _721  and  _723
REMARK  290  A    between atoms: _723  and  _724
REMARK  291  A    between atoms: _723  and  _726
REMARK  292  A    between atoms: _726  and  _727
REMARK  293  A    between atoms: _727  and  _728
REMARK  294  A    between atoms: _731  and  _733
REMARK  295  A    between atoms: _733  and  _734
REMARK  296  A    between atoms: _737  and  _739
REMARK  297  A    between atoms: _739  and  _740
REMARK  298  A    between atoms: _739  and  _742
REMARK  299  A    between atoms: _742  and  _743
REMARK  300  A    between atoms: _743  and  _744
REMARK  301  A    between atoms: _747  and  _749
REMARK  302  A    between atoms: _749  and  _750
REMARK  303  A    between atoms: _749  and  _752
REMARK  304  A    between atoms: _752  and  _753
REMARK  305  A    between atoms: _758  and  _760
REMARK  306  A    between atoms: _760  and  _761
REMARK  307  A    between atoms: _760  and  _763
REMARK  308  A    between atoms: _763  and  _764
REMARK  309  A    between atoms: _764  and  _765
REMARK  310  A    between atoms: _770  and  _772
REMARK  311  A    between atoms: _772  and  _773
REMARK  312  A    between atoms: _776  and  _778
REMARK  313  A    between atoms: _778  and  _779
REMARK  314  A    between atoms: _778  and  _781
REMARK  315  A    between atoms: _781  and  _782
REMARK  316  A    between atoms: _787  and  _788
REMARK  317  A    between atoms: _790  and  _792
REMARK  318  A    between atoms: _792  and  _793
REMARK  319  A    between atoms: _792  and  _795
REMARK  320  A    between atoms: _795  and  _796
REMARK  321  A    between atoms: _799  and  _801
REMARK  322  A    between atoms: _801  and  _802
REMARK  323  A    between atoms: _801  and  _804
REMARK  324  A    between atoms: _804  and  _805
REMARK  325  A    between atoms: _808  and  _810
REMARK  326  A    between atoms: _810  and  _811
REMARK  327  A    between atoms: _810  and  _813
REMARK  328  A    between atoms: _813  and  _814
REMARK  329  A    between atoms: _815  and  _817
REMARK  330  A    between atoms: _817  and  _818
REMARK  331  A    between atoms: _817  and  _820
REMARK  332  A    between atoms: _823  and  _825
REMARK  333  A    between atoms: _825  and  _826
REMARK  334  A    between atoms: _825  and  _828
REMARK  335  A    between atoms: _828  and  _829
REMARK  336  A    between atoms: _829  and  _830
REMARK  337  A    between atoms: _833  and  _835
REMARK  338  A    between atoms: _835  and  _836
REMARK  339  A    between atoms: _835  and  _838
REMARK  340  A    between atoms: _838  and  _839
REMARK  341  A    between atoms: _849  and  _851
REMARK  342  A    between atoms: _851  and  _852
REMARK  343  A    between atoms: _851  and  _854
REMARK  344  A    between atoms: _854  and  _855
REMARK  345  A    between atoms: _858  and  _860
REMARK  346  A    between atoms: _860  and  _861
REMARK  347  A    between atoms: _860  and  _863
REMARK  348  A    between atoms: _863  and  _864
REMARK  349  A    between atoms: _864  and  _865
REMARK  350  A    between atoms: _865  and  _866
REMARK  351  A    between atoms: _866  and  _867
REMARK  352  A    between atoms: _871  and  _873
REMARK  353  A    between atoms: _873  and  _874
REMARK  354  A    between atoms: _873  and  _876
REMARK  355  A    between atoms: _876  and  _877
REMARK  356  A    between atoms: _882  and  _883
REMARK                            x       y       z     vdW  Elec       q    Type
REMARK                         _______ _______ _______ _____ _____    ______ ____
ROOT
ATOM      1  O   HOH     1      22.986  -6.321  12.736  0.00  0.00    +0.000 OA
ENDROOT
TORSDOF 0
REMARK  Name = ../refined-set-2016/3bzf/3bzf_pocket.pdb
REMARK  356 active torsions:
REMARK  status: ('A' for Active; 'I' for Inactive)
REMARK    1  A    between atoms: _1  and  _3
REMARK    2  A    between atoms: _3  and  _4
REMARK    3  A    between atoms: _3  and  _6
REMARK    4  A    between atoms: _6  and  _7
REMARK    5  A    between atoms: _10  and  _12
REMARK    6  A    between atoms: _12  and  _13
REMARK    7  A    between atoms: _12  and  _15
REMARK    8  A    between atoms: _15  and  _16
REMARK    9  A    between atoms: _16  and  _17
REMARK   10  A    between atoms: _17  and  _18
REMARK   11  A    between atoms: _18  and  _19
REMARK   12  A    between atoms: _23  and  _25
REMARK   13  A    between atoms: _25  and  _26
REMARK   14  A    between atoms: _25  and  _28
REMARK   15  A    between atoms: _28  and  _29
REMARK   16  A    between atoms: _34  and  _35
REMARK   17  A    between atoms: _37  and  _39
REMARK   18  A    between atoms: _39  and  _40
REMARK   19  A    between atoms: _39  and  _42
REMARK   20  A    between atoms: _42  and  _43
REMARK   21  A    between atoms: _49  and  _51
REMARK   22  A    between atoms: _51  and  _52
REMARK   23  A    between atoms: _51  and  _54
REMARK   24  A    between atoms: _54  and  _55
REMARK   25  A    between atoms: _60  and  _62
REMARK   26  A    between atoms: _62  and  _63
REMARK   27  A    between atoms: _62  and  _65
REMARK   28  A    between atoms: _65  and  _66
REMARK   29  A    between atoms: _72  and  _74
REMARK   30  A    between atoms: _74  and  _75
REMARK   31  A    between atoms: _74  and  _77
REMARK   32  A    between atoms: _77  and  _78
REMARK   33  A    between atoms: _81  and  _83
REMARK   34  A    between atoms: _83  and  _84
REMARK   35  A    between atoms: _83  and  _86
REMARK   36  A    between atoms: _86  and  _87
REMARK   37  A    between atoms: _89  and  _91
REMARK   38  A    between atoms: _91  and  _92
REMARK   39  A    between atoms: _91  and  _94
REMARK   40  A    between atoms: _97  and  _99
REMARK   41  A    between atoms: _99  and  _100
REMARK   42  A    between atoms: _102  and  _104
REMARK   43  A    between atoms: _104  and  _105
REMARK   44  A    between atoms: _104  and  _107
REMARK   45  A    between atoms: _107  and  _108
REMARK   46  A    between atoms: _114  and  _116
REMARK   47  A    between atoms: _116  and  _117
REMARK   48  A    between atoms: _116  and  _119
REMARK   49  A    between atoms: _122  and  _124
REMARK   50  A    between atoms: _124  and  _125
REMARK   51  A    between atoms: _124  and  _127
REMARK   52  A    between atoms: _127  and  _128
REMARK   53  A    between atoms: _128  and  _129
REMARK   54  A    between atoms: _129  and  _130
REMARK   55  A    between atoms: _139  and  _141
REMARK   56  A    between atoms: _141  and  _142
REMARK   57  A    between atoms: _141  and  _144
REMARK   58  A    between atoms: _144  and  _145
REMARK   59  A    between atoms: _151  and  _153
REMARK   60  A    between atoms: _153  and  _154
REMARK   61  A    between atoms: _153  and  _156
REMARK   62  A    between atoms: _156  and  _157
REMARK   63  A    between atoms: _157  and  _158
REMARK   64  A    between atoms: _160  and  _162
REMARK   65  A    between atoms: _162  and  _163
REMARK   66  A    between atoms: _162  and  _165
REMARK   67  A    between atoms: _165  and  _166
REMARK   68  A    between atoms: _171  and  _172
REMARK   69  A    between atoms: _174  and  _176
REMARK   70  A    between atoms: _176  and  _177
REMARK   71  A    between atoms: _176  and  _179
REMARK   72  A    between atoms: _179  and  _180
REMARK   73  A    between atoms: _180  and  _181
REMARK   74  A    between atoms: _181  and  _182
REMARK   75  A    between atoms: _191  and  _193
REMARK   76  A    between atoms: _193  and  _194
REMARK   77  A    between atoms: _193  and  _196
REMARK   78  A    between atoms: _196  and  _197
REMARK   79  A    between atoms: _197  and  _198
REMARK   80  A    between atoms: _201  and  _203
REMARK   81  A    between atoms: _203  and  _204
REMARK   82  A    between atoms: _203  and  _206
REMARK   83  A    between atoms: _206  and  _207
REMARK   84  A    between atoms: _210  and  _212
REMARK   85  A    between atoms: _212  and  _213
REMARK   86  A    between atoms: _212  and  _215
REMARK   87  A    between atoms: _215  and  _216
REMARK   88  A    between atoms: _216  and  _217
REMARK   89  A    between atoms: _217  and  _218
REMARK   90  A    between atoms: _227  and  _229
REMARK   91  A    between atoms: _229  and  _230
REMARK   92  A    between atoms: _229  and  _232
REMARK   93  A    between atoms: _232  and  _233
REMARK   94  A    between atoms: _235  and  _237
REMARK   95  A    between atoms: _237  and  _238
REMARK   96  A    between atoms: _241  and  _243
REMARK   97  A    between atoms: _243  and  _244
REMARK   98  A    between atoms: _243  and  _246
REMARK   99  A    between atoms: _246  and  _247
REMARK  100  A    between atoms: _247  and  _248
REMARK  101  A    between atoms: _248  and  _249
REMARK  102  A    between atoms: _258  and  _260
REMARK  103  A    between atoms: _260  and  _261
REMARK  104  A    between atoms: _260  and  _263
REMARK  105  A    between atoms: _263  and  _264
REMARK  106  A    between atoms: _267  and  _269
REMARK  107  A    between atoms: _269  and  _270
REMARK  108  A    between atoms: _269  and  _272
REMARK  109  A    between atoms: _272  and  _273
REMARK  110  A    between atoms: _276  and  _278
REMARK  111  A    between atoms: _278  and  _279
REMARK  112  A    between atoms: _282  and  _284
REMARK  113  A    between atoms: _284  and  _285
REMARK  114  A    between atoms: _284  and  _287
REMARK  115  A    between atoms: _287  and  _288
REMARK  116  A    between atoms: _288  and  _289
REMARK  117  A    between atoms: _294  and  _296
REMARK  118  A    between atoms: _296  and  _297
REMARK  119  A    between atoms: _296  and  _299
REMARK  120  A    between atoms: _299  and  _300
REMARK  121  A    between atoms: _303  and  _305
REMARK  122  A    between atoms: _305  and  _306
REMARK  123  A    between atoms: _305  and  _308
REMARK  124  A    between atoms: _308  and  _309
REMARK  125  A    between atoms: _315  and  _317
REMARK  126  A    between atoms: _317  and  _318
REMARK  127  A    between atoms: _317  and  _320
REMARK  128  A    between atoms: _320  and  _321
REMARK  129  A    between atoms: _321  and  _322
REMARK  130  A    between atoms: _322  and  _323
REMARK  131  A    between atoms: _332  and  _334
REMARK  132  A    between atoms: _334  and  _335
REMARK  133  A    between atoms: _334  and  _337
REMARK  134  A    between atoms: _340  and  _342
REMARK  135  A    between atoms: _342  and  _343
REMARK  136  A    between atoms: _342  and  _345
REMARK  137  A    between atoms: _345  and  _346
REMARK  138  A    between atoms: _351  and  _353
REMARK  139  A    between atoms: _353  and  _354
REMARK  140  A    between atoms: _353  and  _356
REMARK  141  A    between atoms: _356  and  _357
REMARK  142  A    between atoms: _360  and  _362
REMARK  143  A    between atoms: _362  and  _363
REMARK  144  A    between atoms: _362  and  _365
REMARK  145  A    between atoms: _365  and  _366
REMARK  146  A    between atoms: _366  and  _367
REMARK  147  A    between atoms: _367  and  _368
REMARK  148  A    between atoms: _377  and  _379
REMARK  149  A    between atoms: _379  and  _380
REMARK  150  A    between atoms: _379  and  _382
REMARK  151  A    between atoms: _382  and  _383
REMARK  152  A    between atoms: _386  and  _388
REMARK  153  A    between atoms: _388  and  _389
REMARK  154  A    between atoms: _388  and  _391
REMARK  155  A    between atoms: _391  and  _392
REMARK  156  A    between atoms: _395  and  _397
REMARK  157  A    between atoms: _397  and  _398
REMARK  158  A    between atoms: _397  and  _400
REMARK  159  A    between atoms: _400  and  _401
REMARK  160  A    between atoms: _406  and  _407
REMARK  161  A    between atoms: _409  and  _411
REMARK  162  A    between atoms: _411  and  _412
REMARK  163  A    between atoms: _411  and  _414
REMARK  164  A    between atoms: _414  and  _415
REMARK  165  A    between atoms: _420  and  _421
REMARK  166  A    between atoms: _423  and  _425
REMARK  167  A    between atoms: _425  and  _426
REMARK  168  A    between atoms: _425  and  _428
REMARK  169  A    between atoms: _428  and  _429
REMARK  170  A    between atoms: _432  and  _434
REMARK  171  A    between atoms: _434  and  _435
REMARK  172  A    between atoms: _434  and  _437
REMARK  173  A    between atoms: _437  and  _438
REMARK  174  A    between atoms: _438  and  _439
REMARK  175  A    between atoms: _444  and  _446
REMARK  176  A    between atoms: _446  and  _447
REMARK  177  A    between atoms: _446  and  _449
REMARK  178  A    between atoms: _449  and  _450
REMARK  179  A    between atoms: _460  and  _462
REMARK  180  A    between atoms: _462  and  _463
REMARK  181  A    between atoms: _462  and  _465
REMARK  182  A    between atoms: _465  and  _466
REMARK  183  A    between atoms: _466  and  _467
REMARK  184  A    between atoms: _469  and  _471
REMARK  185  A    between atoms: _471  and  _472
REMARK  186  A    between atoms: _471  and  _474
REMARK  187  A    between atoms: _474  and  _475
REMARK  188  A    between atoms: _480  and  _482
REMARK  189  A    between atoms: _482  and  _483
REMARK  190  A    between atoms: _485  and  _487
REMARK  191  A    between atoms: _487  and  _488
REMARK  192  A    between atoms: _487  and  _490
REMARK  193  A    between atoms: _490  and  _491
REMARK  194  A    between atoms: _491  and  _814
REMARK  195  A    between atoms: _492  and  _494
REMARK  196  A    between atoms: _494  and  _495
REMARK  197  A    between atoms: _494  and  _497
REMARK  198  A    between atoms: _497  and  _498
REMARK  199  A    between atoms: _498  and  _499
REMARK  200  A    between atoms: _502  and  _504
REMARK  201  A    between atoms: _504  and  _505
REMARK  202  A    between atoms: _504  and  _507
REMARK  203  A    between atoms: _507  and  _508
REMARK  204  A    between atoms: _508  and  _509
REMARK  205  A    between atoms: _514  and  _516
REMARK  206  A    between atoms: _516  and  _517
REMARK  207  A    between atoms: _516  and  _519
REMARK  208  A    between atoms: _519  and  _520
REMARK  209  A    between atoms: _526  and  _528
REMARK  210  A    between atoms: _528  and  _529
REMARK  211  A    between atoms: _532  and  _534
REMARK  212  A    between atoms: _534  and  _535
REMARK  213  A    between atoms: _534  and  _537
REMARK  214  A    between atoms: _537  and  _538
REMARK  215  A    between atoms: _543  and  _544
REMARK  216  A    between atoms: _546  and  _548
REMARK  217  A    between atoms: _548  and  _549
REMARK  218  A    between atoms: _548  and  _551
REMARK  219  A    between atoms: _551  and  _552
REMARK  220  A    between atoms: _557  and  _558
REMARK  221  A    between atoms: _560  and  _562
REMARK  222  A    between atoms: _562  and  _563
REMARK  223  A    between atoms: _562  and  _565
REMARK  224  A    between atoms: _565  and  _566
REMARK  225  A    between atoms: _569  and  _571
REMARK  226  A    between atoms: _571  and  _572
REMARK  227  A    between atoms: _571  and  _574
REMARK  228  A    between atoms: _574  and  _575
REMARK  229  A    between atoms: _578  and  _580
REMARK  230  A    between atoms: _580  and  _581
REMARK  231  A    between atoms: _580  and  _583
REMARK  232  A    between atoms: _583  and  _584
REMARK  233  A    between atoms: _587  and  _589
REMARK  234  A    between atoms: _589  and  _590
REMARK  235  A    between atoms: _589  and  _592
REMARK  236  A    between atoms: _592  and  _593
REMARK  237  A    between atoms: _603  and  _605
REMARK  238  A    between atoms: _605  and  _606
REMARK  239  A    between atoms: _605  and  _608
REMARK  240  A    between atoms: _608  and  _609
REMARK  241  A    between atoms: _612  and  _614
REMARK  242  A    between atoms: _614  and  _615
REMARK  243  A    between atoms: _618  and  _620
REMARK  244  A    between atoms: _620  and  _621
REMARK  245  A    between atoms: _624  and  _626
REMARK  246  A    between atoms: _626  and  _627
REMARK  247  A    between atoms: _626  and  _629
REMARK  248  A    between atoms: _629  and  _630
REMARK  249  A    between atoms: _630  and  _631
REMARK  250  A    between atoms: _636  and  _638
REMARK  251  A    between atoms: _638  and  _639
REMARK  252  A    between atoms: _638  and  _641
REMARK  253  A    between atoms: _641  and  _642
REMARK  254  A    between atoms: _645  and  _647
REMARK  255  A    between atoms: _647  and  _648
REMARK  256  A    between atoms: _647  and  _650
REMARK  257  A    between atoms: _650  and  _651
REMARK  258  A    between atoms: _653  and  _655
REMARK  259  A    between atoms: _655  and  _656
REMARK  260  A    between atoms: _655  and  _658
REMARK  261  A    between atoms: _658  and  _659
REMARK  262  A    between atoms: _659  and  _660
REMARK  263  A    between atoms: _663  and  _665
REMARK  264  A    between atoms: _665  and  _666
REMARK  265  A    between atoms: _665  and  _668
REMARK  266  A    between atoms: _668  and  _669
REMARK  267  A    between atoms: _669  and  _670
REMARK  268  A    between atoms: _675  and  _677
REMARK  269  A    between atoms: _677  and  _678
REMARK  270  A    between atoms: _677  and  _680
REMARK  271  A    between atoms: _680  and  _681
REMARK  272  A    between atoms: _681  and  _682
REMARK  273  A    between atoms: _682  and  _683
REMARK  274  A    between atoms: _683  and  _684
REMARK  275  A    between atoms: _688  and  _690
REMARK  276  A    between atoms: _690  and  _691
REMARK  277  A    between atoms: _690  and  _693
REMARK  278  A    between atoms: _693  and  _694
REMARK  279  A    between atoms: _696  and  _698
REMARK  280  A    between atoms: _698  and  _699
REMARK  281  A    between atoms: _698  and  _701
REMARK  282  A    between atoms: _701  and  _702
REMARK  283  A    between atoms: _707  and  _709
REMARK  284  A    between atoms: _709  and  _710
REMARK  285  A    between atoms: _713  and  _715
REMARK  286  A    between atoms: _715  and  _716
REMARK  287  A    between atoms: _715  and  _718
REMARK  288  A    between atoms: _718  and  _719
REMARK  289  A    between atoms: _721  and  _723
REMARK  290  A    between atoms: _723  and  _724
REMARK  291  A    between atoms: _723  and  _726
REMARK  292  A    between atoms: _726  and  _727
REMARK  293  A    between atoms: _727  and  _728
REMARK  294  A    between atoms: _731  and  _733
REMARK  295  A    between atoms: _733  and  _734
REMARK  296  A    between atoms: _737  and  _739
REMARK  297  A    between atoms: _739  and  _740
REMARK  298  A    between atoms: _739  and  _742
REMARK  299  A    between atoms: _742  and  _743
REMARK  300  A    between atoms: _743  and  _744
REMARK  301  A    between atoms: _747  and  _749
REMARK  302  A    between atoms: _749  and  _750
REMARK  303  A    between atoms: _749  and  _752
REMARK  304  A    between atoms: _752  and  _753
REMARK  305  A    between atoms: _758  and  _760
REMARK  306  A    between atoms: _760  and  _761
REMARK  307  A    between atoms: _760  and  _763
REMARK  308  A    between atoms: _763  and  _764
REMARK  309  A    between atoms: _764  and  _765
REMARK  310  A    between atoms: _770  and  _772
REMARK  311  A    between atoms: _772  and  _773
REMARK  312  A    between atoms: _776  and  _778
REMARK  313  A    between atoms: _778  and  _779
REMARK  314  A    between atoms: _778  and  _781
REMARK  315  A    between atoms: _781  and  _782
REMARK  316  A    between atoms: _787  and  _788
REMARK  317  A    between atoms: _790  and  _792
REMARK  318  A    between atoms: _792  and  _793
REMARK  319  A    between atoms: _792  and  _795
REMARK  320  A    between atoms: _795  and  _796
REMARK  321  A    between atoms: _799  and  _801
REMARK  322  A    between atoms: _801  and  _802
REMARK  323  A    between atoms: _801  and  _804
REMARK  324  A    between atoms: _804  and  _805
REMARK  325  A    between atoms: _808  and  _810
REMARK  326  A    between atoms: _810  and  _811
REMARK  327  A    between atoms: _810  and  _813
REMARK  328  A    between atoms: _813  and  _814
REMARK  329  A    between atoms: _815  and  _817
REMARK  330  A    between atoms: _817  and  _818
REMARK  331  A    between atoms: _817  and  _820
REMARK  332  A    between atoms: _823  and  _825
REMARK  333  A    between atoms: _825  and  _826
REMARK  334  A    between atoms: _825  and  _828
REMARK  335  A    between atoms: _828  and  _829
REMARK  336  A    between atoms: _829  and  _830
REMARK  337  A    between atoms: _833  and  _835
REMARK  338  A    between atoms: _835  and  _836
REMARK  339  A    between atoms: _835  and  _838
REMARK  340  A    between atoms: _838  and  _839
REMARK  341  A    between atoms: _849  and  _851
REMARK  342  A    between atoms: _851  and  _852
REMARK  343  A    between atoms: _851  and  _854
REMARK  344  A    between atoms: _854  and  _855
REMARK  345  A    between atoms: _858  and  _860
REMARK  346  A    between atoms: _860  and  _861
REMARK  347  A    between atoms: _860  and  _863
REMARK  348  A    between atoms: _863  and  _864
REMARK  349  A    between atoms: _864  and  _865
REMARK  350  A    between atoms: _865  and  _866
REMARK  351  A    between atoms: _866  and  _867
REMARK  352  A    between atoms: _871  and  _873
REMARK  353  A    between atoms: _873  and  _874
REMARK  354  A    between atoms: _873  and  _876
REMARK  355  A    between atoms: _876  and  _877
REMARK  356  A    between atoms: _882  and  _883
REMARK                            x       y       z     vdW  Elec       q    Type
REMARK                         _______ _______ _______ _____ _____    ______ ____
ROOT
ATOM      1  O   HOH     1      14.357  -8.426  28.408  0.00  0.00    +0.000 OA
ENDROOT
TORSDOF 0
REMARK  Name = ../refined-set-2016/3bzf/3bzf_pocket.pdb
REMARK  356 active torsions:
REMARK  status: ('A' for Active; 'I' for Inactive)
REMARK    1  A    between atoms: _1  and  _3
REMARK    2  A    between atoms: _3  and  _4
REMARK    3  A    between atoms: _3  and  _6
REMARK    4  A    between atoms: _6  and  _7
REMARK    5  A    between atoms: _10  and  _12
REMARK    6  A    between atoms: _12  and  _13
REMARK    7  A    between atoms: _12  and  _15
REMARK    8  A    between atoms: _15  and  _16
REMARK    9  A    between atoms: _16  and  _17
REMARK   10  A    between atoms: _17  and  _18
REMARK   11  A    between atoms: _18  and  _19
REMARK   12  A    between atoms: _23  and  _25
REMARK   13  A    between atoms: _25  and  _26
REMARK   14  A    between atoms: _25  and  _28
REMARK   15  A    between atoms: _28  and  _29
REMARK   16  A    between atoms: _34  and  _35
REMARK   17  A    between atoms: _37  and  _39
REMARK   18  A    between atoms: _39  and  _40
REMARK   19  A    between atoms: _39  and  _42
REMARK   20  A    between atoms: _42  and  _43
REMARK   21  A    between atoms: _49  and  _51
REMARK   22  A    between atoms: _51  and  _52
REMARK   23  A    between atoms: _51  and  _54
REMARK   24  A    between atoms: _54  and  _55
REMARK   25  A    between atoms: _60  and  _62
REMARK   26  A    between atoms: _62  and  _63
REMARK   27  A    between atoms: _62  and  _65
REMARK   28  A    between atoms: _65  and  _66
REMARK   29  A    between atoms: _72  and  _74
REMARK   30  A    between atoms: _74  and  _75
REMARK   31  A    between atoms: _74  and  _77
REMARK   32  A    between atoms: _77  and  _78
REMARK   33  A    between atoms: _81  and  _83
REMARK   34  A    between atoms: _83  and  _84
REMARK   35  A    between atoms: _83  and  _86
REMARK   36  A    between atoms: _86  and  _87
REMARK   37  A    between atoms: _89  and  _91
REMARK   38  A    between atoms: _91  and  _92
REMARK   39  A    between atoms: _91  and  _94
REMARK   40  A    between atoms: _97  and  _99
REMARK   41  A    between atoms: _99  and  _100
REMARK   42  A    between atoms: _102  and  _104
REMARK   43  A    between atoms: _104  and  _105
REMARK   44  A    between atoms: _104  and  _107
REMARK   45  A    between atoms: _107  and  _108
REMARK   46  A    between atoms: _114  and  _116
REMARK   47  A    between atoms: _116  and  _117
REMARK   48  A    between atoms: _116  and  _119
REMARK   49  A    between atoms: _122  and  _124
REMARK   50  A    between atoms: _124  and  _125
REMARK   51  A    between atoms: _124  and  _127
REMARK   52  A    between atoms: _127  and  _128
REMARK   53  A    between atoms: _128  and  _129
REMARK   54  A    between atoms: _129  and  _130
REMARK   55  A    between atoms: _139  and  _141
REMARK   56  A    between atoms: _141  and  _142
REMARK   57  A    between atoms: _141  and  _144
REMARK   58  A    between atoms: _144  and  _145
REMARK   59  A    between atoms: _151  and  _153
REMARK   60  A    between atoms: _153  and  _154
REMARK   61  A    between atoms: _153  and  _156
REMARK   62  A    between atoms: _156  and  _157
REMARK   63  A    between atoms: _157  and  _158
REMARK   64  A    between atoms: _160  and  _162
REMARK   65  A    between atoms: _162  and  _163
REMARK   66  A    between atoms: _162  and  _165
REMARK   67  A    between atoms: _165  and  _166
REMARK   68  A    between atoms: _171  and  _172
REMARK   69  A    between atoms: _174  and  _176
REMARK   70  A    between atoms: _176  and  _177
REMARK   71  A    between atoms: _176  and  _179
REMARK   72  A    between atoms: _179  and  _180
REMARK   73  A    between atoms: _180  and  _181
REMARK   74  A    between atoms: _181  and  _182
REMARK   75  A    between atoms: _191  and  _193
REMARK   76  A    between atoms: _193  and  _194
REMARK   77  A    between atoms: _193  and  _196
REMARK   78  A    between atoms: _196  and  _197
REMARK   79  A    between atoms: _197  and  _198
REMARK   80  A    between atoms: _201  and  _203
REMARK   81  A    between atoms: _203  and  _204
REMARK   82  A    between atoms: _203  and  _206
REMARK   83  A    between atoms: _206  and  _207
REMARK   84  A    between atoms: _210  and  _212
REMARK   85  A    between atoms: _212  and  _213
REMARK   86  A    between atoms: _212  and  _215
REMARK   87  A    between atoms: _215  and  _216
REMARK   88  A    between atoms: _216  and  _217
REMARK   89  A    between atoms: _217  and  _218
REMARK   90  A    between atoms: _227  and  _229
REMARK   91  A    between atoms: _229  and  _230
REMARK   92  A    between atoms: _229  and  _232
REMARK   93  A    between atoms: _232  and  _233
REMARK   94  A    between atoms: _235  and  _237
REMARK   95  A    between atoms: _237  and  _238
REMARK   96  A    between atoms: _241  and  _243
REMARK   97  A    between atoms: _243  and  _244
REMARK   98  A    between atoms: _243  and  _246
REMARK   99  A    between atoms: _246  and  _247
REMARK  100  A    between atoms: _247  and  _248
REMARK  101  A    between atoms: _248  and  _249
REMARK  102  A    between atoms: _258  and  _260
REMARK  103  A    between atoms: _260  and  _261
REMARK  104  A    between atoms: _260  and  _263
REMARK  105  A    between atoms: _263  and  _264
REMARK  106  A    between atoms: _267  and  _269
REMARK  107  A    between atoms: _269  and  _270
REMARK  108  A    between atoms: _269  and  _272
REMARK  109  A    between atoms: _272  and  _273
REMARK  110  A    between atoms: _276  and  _278
REMARK  111  A    between atoms: _278  and  _279
REMARK  112  A    between atoms: _282  and  _284
REMARK  113  A    between atoms: _284  and  _285
REMARK  114  A    between atoms: _284  and  _287
REMARK  115  A    between atoms: _287  and  _288
REMARK  116  A    between atoms: _288  and  _289
REMARK  117  A    between atoms: _294  and  _296
REMARK  118  A    between atoms: _296  and  _297
REMARK  119  A    between atoms: _296  and  _299
REMARK  120  A    between atoms: _299  and  _300
REMARK  121  A    between atoms: _303  and  _305
REMARK  122  A    between atoms: _305  and  _306
REMARK  123  A    between atoms: _305  and  _308
REMARK  124  A    between atoms: _308  and  _309
REMARK  125  A    between atoms: _315  and  _317
REMARK  126  A    between atoms: _317  and  _318
REMARK  127  A    between atoms: _317  and  _320
REMARK  128  A    between atoms: _320  and  _321
REMARK  129  A    between atoms: _321  and  _322
REMARK  130  A    between atoms: _322  and  _323
REMARK  131  A    between atoms: _332  and  _334
REMARK  132  A    between atoms: _334  and  _335
REMARK  133  A    between atoms: _334  and  _337
REMARK  134  A    between atoms: _340  and  _342
REMARK  135  A    between atoms: _342  and  _343
REMARK  136  A    between atoms: _342  and  _345
REMARK  137  A    between atoms: _345  and  _346
REMARK  138  A    between atoms: _351  and  _353
REMARK  139  A    between atoms: _353  and  _354
REMARK  140  A    between atoms: _353  and  _356
REMARK  141  A    between atoms: _356  and  _357
REMARK  142  A    between atoms: _360  and  _362
REMARK  143  A    between atoms: _362  and  _363
REMARK  144  A    between atoms: _362  and  _365
REMARK  145  A    between atoms: _365  and  _366
REMARK  146  A    between atoms: _366  and  _367
REMARK  147  A    between atoms: _367  and  _368
REMARK  148  A    between atoms: _377  and  _379
REMARK  149  A    between atoms: _379  and  _380
REMARK  150  A    between atoms: _379  and  _382
REMARK  151  A    between atoms: _382  and  _383
REMARK  152  A    between atoms: _386  and  _388
REMARK  153  A    between atoms: _388  and  _389
REMARK  154  A    between atoms: _388  and  _391
REMARK  155  A    between atoms: _391  and  _392
REMARK  156  A    between atoms: _395  and  _397
REMARK  157  A    between atoms: _397  and  _398
REMARK  158  A    between atoms: _397  and  _400
REMARK  159  A    between atoms: _400  and  _401
REMARK  160  A    between atoms: _406  and  _407
REMARK  161  A    between atoms: _409  and  _411
REMARK  162  A    between atoms: _411  and  _412
REMARK  163  A    between atoms: _411  and  _414
REMARK  164  A    between atoms: _414  and  _415
REMARK  165  A    between atoms: _420  and  _421
REMARK  166  A    between atoms: _423  and  _425
REMARK  167  A    between atoms: _425  and  _426
REMARK  168  A    between atoms: _425  and  _428
REMARK  169  A    between atoms: _428  and  _429
REMARK  170  A    between atoms: _432  and  _434
REMARK  171  A    between atoms: _434  and  _435
REMARK  172  A    between atoms: _434  and  _437
REMARK  173  A    between atoms: _437  and  _438
REMARK  174  A    between atoms: _438  and  _439
REMARK  175  A    between atoms: _444  and  _446
REMARK  176  A    between atoms: _446  and  _447
REMARK  177  A    between atoms: _446  and  _449
REMARK  178  A    between atoms: _449  and  _450
REMARK  179  A    between atoms: _460  and  _462
REMARK  180  A    between atoms: _462  and  _463
REMARK  181  A    between atoms: _462  and  _465
REMARK  182  A    between atoms: _465  and  _466
REMARK  183  A    between atoms: _466  and  _467
REMARK  184  A    between atoms: _469  and  _471
REMARK  185  A    between atoms: _471  and  _472
REMARK  186  A    between atoms: _471  and  _474
REMARK  187  A    between atoms: _474  and  _475
REMARK  188  A    between atoms: _480  and  _482
REMARK  189  A    between atoms: _482  and  _483
REMARK  190  A    between atoms: _485  and  _487
REMARK  191  A    between atoms: _487  and  _488
REMARK  192  A    between atoms: _487  and  _490
REMARK  193  A    between atoms: _490  and  _491
REMARK  194  A    between atoms: _491  and  _814
REMARK  195  A    between atoms: _492  and  _494
REMARK  196  A    between atoms: _494  and  _495
REMARK  197  A    between atoms: _494  and  _497
REMARK  198  A    between atoms: _497  and  _498
REMARK  199  A    between atoms: _498  and  _499
REMARK  200  A    between atoms: _502  and  _504
REMARK  201  A    between atoms: _504  and  _505
REMARK  202  A    between atoms: _504  and  _507
REMARK  203  A    between atoms: _507  and  _508
REMARK  204  A    between atoms: _508  and  _509
REMARK  205  A    between atoms: _514  and  _516
REMARK  206  A    between atoms: _516  and  _517
REMARK  207  A    between atoms: _516  and  _519
REMARK  208  A    between atoms: _519  and  _520
REMARK  209  A    between atoms: _526  and  _528
REMARK  210  A    between atoms: _528  and  _529
REMARK  211  A    between atoms: _532  and  _534
REMARK  212  A    between atoms: _534  and  _535
REMARK  213  A    between atoms: _534  and  _537
REMARK  214  A    between atoms: _537  and  _538
REMARK  215  A    between atoms: _543  and  _544
REMARK  216  A    between atoms: _546  and  _548
REMARK  217  A    between atoms: _548  and  _549
REMARK  218  A    between atoms: _548  and  _551
REMARK  219  A    between atoms: _551  and  _552
REMARK  220  A    between atoms: _557  and  _558
REMARK  221  A    between atoms: _560  and  _562
REMARK  222  A    between atoms: _562  and  _563
REMARK  223  A    between atoms: _562  and  _565
REMARK  224  A    between atoms: _565  and  _566
REMARK  225  A    between atoms: _569  and  _571
REMARK  226  A    between atoms: _571  and  _572
REMARK  227  A    between atoms: _571  and  _574
REMARK  228  A    between atoms: _574  and  _575
REMARK  229  A    between atoms: _578  and  _580
REMARK  230  A    between atoms: _580  and  _581
REMARK  231  A    between atoms: _580  and  _583
REMARK  232  A    between atoms: _583  and  _584
REMARK  233  A    between atoms: _587  and  _589
REMARK  234  A    between atoms: _589  and  _590
REMARK  235  A    between atoms: _589  and  _592
REMARK  236  A    between atoms: _592  and  _593
REMARK  237  A    between atoms: _603  and  _605
REMARK  238  A    between atoms: _605  and  _606
REMARK  239  A    between atoms: _605  and  _608
REMARK  240  A    between atoms: _608  and  _609
REMARK  241  A    between atoms: _612  and  _614
REMARK  242  A    between atoms: _614  and  _615
REMARK  243  A    between atoms: _618  and  _620
REMARK  244  A    between atoms: _620  and  _621
REMARK  245  A    between atoms: _624  and  _626
REMARK  246  A    between atoms: _626  and  _627
REMARK  247  A    between atoms: _626  and  _629
REMARK  248  A    between atoms: _629  and  _630
REMARK  249  A    between atoms: _630  and  _631
REMARK  250  A    between atoms: _636  and  _638
REMARK  251  A    between atoms: _638  and  _639
REMARK  252  A    between atoms: _638  and  _641
REMARK  253  A    between atoms: _641  and  _642
REMARK  254  A    between atoms: _645  and  _647
REMARK  255  A    between atoms: _647  and  _648
REMARK  256  A    between atoms: _647  and  _650
REMARK  257  A    between atoms: _650  and  _651
REMARK  258  A    between atoms: _653  and  _655
REMARK  259  A    between atoms: _655  and  _656
REMARK  260  A    between atoms: _655  and  _658
REMARK  261  A    between atoms: _658  and  _659
REMARK  262  A    between atoms: _659  and  _660
REMARK  263  A    between atoms: _663  and  _665
REMARK  264  A    between atoms: _665  and  _666
REMARK  265  A    between atoms: _665  and  _668
REMARK  266  A    between atoms: _668  and  _669
REMARK  267  A    between atoms: _669  and  _670
REMARK  268  A    between atoms: _675  and  _677
REMARK  269  A    between atoms: _677  and  _678
REMARK  270  A    between atoms: _677  and  _680
REMARK  271  A    between atoms: _680  and  _681
REMARK  272  A    between atoms: _681  and  _682
REMARK  273  A    between atoms: _682  and  _683
REMARK  274  A    between atoms: _683  and  _684
REMARK  275  A    between atoms: _688  and  _690
REMARK  276  A    between atoms: _690  and  _691
REMARK  277  A    between atoms: _690  and  _693
REMARK  278  A    between atoms: _693  and  _694
REMARK  279  A    between atoms: _696  and  _698
REMARK  280  A    between atoms: _698  and  _699
REMARK  281  A    between atoms: _698  and  _701
REMARK  282  A    between atoms: _701  and  _702
REMARK  283  A    between atoms: _707  and  _709
REMARK  284  A    between atoms: _709  and  _710
REMARK  285  A    between atoms: _713  and  _715
REMARK  286  A    between atoms: _715  and  _716
REMARK  287  A    between atoms: _715  and  _718
REMARK  288  A    between atoms: _718  and  _719
REMARK  289  A    between atoms: _721  and  _723
REMARK  290  A    between atoms: _723  and  _724
REMARK  291  A    between atoms: _723  and  _726
REMARK  292  A    between atoms: _726  and  _727
REMARK  293  A    between atoms: _727  and  _728
REMARK  294  A    between atoms: _731  and  _733
REMARK  295  A    between atoms: _733  and  _734
REMARK  296  A    between atoms: _737  and  _739
REMARK  297  A    between atoms: _739  and  _740
REMARK  298  A    between atoms: _739  and  _742
REMARK  299  A    between atoms: _742  and  _743
REMARK  300  A    between atoms: _743  and  _744
REMARK  301  A    between atoms: _747  and  _749
REMARK  302  A    between atoms: _749  and  _750
REMARK  303  A    between atoms: _749  and  _752
REMARK  304  A    between atoms: _752  and  _753
REMARK  305  A    between atoms: _758  and  _760
REMARK  306  A    between atoms: _760  and  _761
REMARK  307  A    between atoms: _760  and  _763
REMARK  308  A    between atoms: _763  and  _764
REMARK  309  A    between atoms: _764  and  _765
REMARK  310  A    between atoms: _770  and  _772
REMARK  311  A    between atoms: _772  and  _773
REMARK  312  A    between atoms: _776  and  _778
REMARK  313  A    between atoms: _778  and  _779
REMARK  314  A    between atoms: _778  and  _781
REMARK  315  A    between atoms: _781  and  _782
REMARK  316  A    between atoms: _787  and  _788
REMARK  317  A    between atoms: _790  and  _792
REMARK  318  A    between atoms: _792  and  _793
REMARK  319  A    between atoms: _792  and  _795
REMARK  320  A    between atoms: _795  and  _796
REMARK  321  A    between atoms: _799  and  _801
REMARK  322  A    between atoms: _801  and  _802
REMARK  323  A    between atoms: _801  and  _804
REMARK  324  A    between atoms: _804  and  _805
REMARK  325  A    between atoms: _808  and  _810
REMARK  326  A    between atoms: _810  and  _811
REMARK  327  A    between atoms: _810  and  _813
REMARK  328  A    between atoms: _813  and  _814
REMARK  329  A    between atoms: _815  and  _817
REMARK  330  A    between atoms: _817  and  _818
REMARK  331  A    between atoms: _817  and  _820
REMARK  332  A    between atoms: _823  and  _825
REMARK  333  A    between atoms: _825  and  _826
REMARK  334  A    between atoms: _825  and  _828
REMARK  335  A    between atoms: _828  and  _829
REMARK  336  A    between atoms: _829  and  _830
REMARK  337  A    between atoms: _833  and  _835
REMARK  338  A    between atoms: _835  and  _836
REMARK  339  A    between atoms: _835  and  _838
REMARK  340  A    between atoms: _838  and  _839
REMARK  341  A    between atoms: _849  and  _851
REMARK  342  A    between atoms: _851  and  _852
REMARK  343  A    between atoms: _851  and  _854
REMARK  344  A    between atoms: _854  and  _855
REMARK  345  A    between atoms: _858  and  _860
REMARK  346  A    between atoms: _860  and  _861
REMARK  347  A    between atoms: _860  and  _863
REMARK  348  A    between atoms: _863  and  _864
REMARK  349  A    between atoms: _864  and  _865
REMARK  350  A    between atoms: _865  and  _866
REMARK  351  A    between atoms: _866  and  _867
REMARK  352  A    between atoms: _871  and  _873
REMARK  353  A    between atoms: _873  and  _874
REMARK  354  A    between atoms: _873  and  _876
REMARK  355  A    between atoms: _876  and  _877
REMARK  356  A    between atoms: _882  and  _883
REMARK                            x       y       z     vdW  Elec       q    Type
REMARK                         _______ _______ _______ _____ _____    ______ ____
ROOT
ATOM      1  O   HOH     1      29.754 -13.063   3.950  0.00  0.00    +0.000 OA
ENDROOT
TORSDOF 0
REMARK  Name = ../refined-set-2016/3bzf/3bzf_pocket.pdb
REMARK  356 active torsions:
REMARK  status: ('A' for Active; 'I' for Inactive)
REMARK    1  A    between atoms: _1  and  _3
REMARK    2  A    between atoms: _3  and  _4
REMARK    3  A    between atoms: _3  and  _6
REMARK    4  A    between atoms: _6  and  _7
REMARK    5  A    between atoms: _10  and  _12
REMARK    6  A    between atoms: _12  and  _13
REMARK    7  A    between atoms: _12  and  _15
REMARK    8  A    between atoms: _15  and  _16
REMARK    9  A    between atoms: _16  and  _17
REMARK   10  A    between atoms: _17  and  _18
REMARK   11  A    between atoms: _18  and  _19
REMARK   12  A    between atoms: _23  and  _25
REMARK   13  A    between atoms: _25  and  _26
REMARK   14  A    between atoms: _25  and  _28
REMARK   15  A    between atoms: _28  and  _29
REMARK   16  A    between atoms: _34  and  _35
REMARK   17  A    between atoms: _37  and  _39
REMARK   18  A    between atoms: _39  and  _40
REMARK   19  A    between atoms: _39  and  _42
REMARK   20  A    between atoms: _42  and  _43
REMARK   21  A    between atoms: _49  and  _51
REMARK   22  A    between atoms: _51  and  _52
REMARK   23  A    between atoms: _51  and  _54
REMARK   24  A    between atoms: _54  and  _55
REMARK   25  A    between atoms: _60  and  _62
REMARK   26  A    between atoms: _62  and  _63
REMARK   27  A    between atoms: _62  and  _65
REMARK   28  A    between atoms: _65  and  _66
REMARK   29  A    between atoms: _72  and  _74
REMARK   30  A    between atoms: _74  and  _75
REMARK   31  A    between atoms: _74  and  _77
REMARK   32  A    between atoms: _77  and  _78
REMARK   33  A    between atoms: _81  and  _83
REMARK   34  A    between atoms: _83  and  _84
REMARK   35  A    between atoms: _83  and  _86
REMARK   36  A    between atoms: _86  and  _87
REMARK   37  A    between atoms: _89  and  _91
REMARK   38  A    between atoms: _91  and  _92
REMARK   39  A    between atoms: _91  and  _94
REMARK   40  A    between atoms: _97  and  _99
REMARK   41  A    between atoms: _99  and  _100
REMARK   42  A    between atoms: _102  and  _104
REMARK   43  A    between atoms: _104  and  _105
REMARK   44  A    between atoms: _104  and  _107
REMARK   45  A    between atoms: _107  and  _108
REMARK   46  A    between atoms: _114  and  _116
REMARK   47  A    between atoms: _116  and  _117
REMARK   48  A    between atoms: _116  and  _119
REMARK   49  A    between atoms: _122  and  _124
REMARK   50  A    between atoms: _124  and  _125
REMARK   51  A    between atoms: _124  and  _127
REMARK   52  A    between atoms: _127  and  _128
REMARK   53  A    between atoms: _128  and  _129
REMARK   54  A    between atoms: _129  and  _130
REMARK   55  A    between atoms: _139  and  _141
REMARK   56  A    between atoms: _141  and  _142
REMARK   57  A    between atoms: _141  and  _144
REMARK   58  A    between atoms: _144  and  _145
REMARK   59  A    between atoms: _151  and  _153
REMARK   60  A    between atoms: _153  and  _154
REMARK   61  A    between atoms: _153  and  _156
REMARK   62  A    between atoms: _156  and  _157
REMARK   63  A    between atoms: _157  and  _158
REMARK   64  A    between atoms: _160  and  _162
REMARK   65  A    between atoms: _162  and  _163
REMARK   66  A    between atoms: _162  and  _165
REMARK   67  A    between atoms: _165  and  _166
REMARK   68  A    between atoms: _171  and  _172
REMARK   69  A    between atoms: _174  and  _176
REMARK   70  A    between atoms: _176  and  _177
REMARK   71  A    between atoms: _176  and  _179
REMARK   72  A    between atoms: _179  and  _180
REMARK   73  A    between atoms: _180  and  _181
REMARK   74  A    between atoms: _181  and  _182
REMARK   75  A    between atoms: _191  and  _193
REMARK   76  A    between atoms: _193  and  _194
REMARK   77  A    between atoms: _193  and  _196
REMARK   78  A    between atoms: _196  and  _197
REMARK   79  A    between atoms: _197  and  _198
REMARK   80  A    between atoms: _201  and  _203
REMARK   81  A    between atoms: _203  and  _204
REMARK   82  A    between atoms: _203  and  _206
REMARK   83  A    between atoms: _206  and  _207
REMARK   84  A    between atoms: _210  and  _212
REMARK   85  A    between atoms: _212  and  _213
REMARK   86  A    between atoms: _212  and  _215
REMARK   87  A    between atoms: _215  and  _216
REMARK   88  A    between atoms: _216  and  _217
REMARK   89  A    between atoms: _217  and  _218
REMARK   90  A    between atoms: _227  and  _229
REMARK   91  A    between atoms: _229  and  _230
REMARK   92  A    between atoms: _229  and  _232
REMARK   93  A    between atoms: _232  and  _233
REMARK   94  A    between atoms: _235  and  _237
REMARK   95  A    between atoms: _237  and  _238
REMARK   96  A    between atoms: _241  and  _243
REMARK   97  A    between atoms: _243  and  _244
REMARK   98  A    between atoms: _243  and  _246
REMARK   99  A    between atoms: _246  and  _247
REMARK  100  A    between atoms: _247  and  _248
REMARK  101  A    between atoms: _248  and  _249
REMARK  102  A    between atoms: _258  and  _260
REMARK  103  A    between atoms: _260  and  _261
REMARK  104  A    between atoms: _260  and  _263
REMARK  105  A    between atoms: _263  and  _264
REMARK  106  A    between atoms: _267  and  _269
REMARK  107  A    between atoms: _269  and  _270
REMARK  108  A    between atoms: _269  and  _272
REMARK  109  A    between atoms: _272  and  _273
REMARK  110  A    between atoms: _276  and  _278
REMARK  111  A    between atoms: _278  and  _279
REMARK  112  A    between atoms: _282  and  _284
REMARK  113  A    between atoms: _284  and  _285
REMARK  114  A    between atoms: _284  and  _287
REMARK  115  A    between atoms: _287  and  _288
REMARK  116  A    between atoms: _288  and  _289
REMARK  117  A    between atoms: _294  and  _296
REMARK  118  A    between atoms: _296  and  _297
REMARK  119  A    between atoms: _296  and  _299
REMARK  120  A    between atoms: _299  and  _300
REMARK  121  A    between atoms: _303  and  _305
REMARK  122  A    between atoms: _305  and  _306
REMARK  123  A    between atoms: _305  and  _308
REMARK  124  A    between atoms: _308  and  _309
REMARK  125  A    between atoms: _315  and  _317
REMARK  126  A    between atoms: _317  and  _318
REMARK  127  A    between atoms: _317  and  _320
REMARK  128  A    between atoms: _320  and  _321
REMARK  129  A    between atoms: _321  and  _322
REMARK  130  A    between atoms: _322  and  _323
REMARK  131  A    between atoms: _332  and  _334
REMARK  132  A    between atoms: _334  and  _335
REMARK  133  A    between atoms: _334  and  _337
REMARK  134  A    between atoms: _340  and  _342
REMARK  135  A    between atoms: _342  and  _343
REMARK  136  A    between atoms: _342  and  _345
REMARK  137  A    between atoms: _345  and  _346
REMARK  138  A    between atoms: _351  and  _353
REMARK  139  A    between atoms: _353  and  _354
REMARK  140  A    between atoms: _353  and  _356
REMARK  141  A    between atoms: _356  and  _357
REMARK  142  A    between atoms: _360  and  _362
REMARK  143  A    between atoms: _362  and  _363
REMARK  144  A    between atoms: _362  and  _365
REMARK  145  A    between atoms: _365  and  _366
REMARK  146  A    between atoms: _366  and  _367
REMARK  147  A    between atoms: _367  and  _368
REMARK  148  A    between atoms: _377  and  _379
REMARK  149  A    between atoms: _379  and  _380
REMARK  150  A    between atoms: _379  and  _382
REMARK  151  A    between atoms: _382  and  _383
REMARK  152  A    between atoms: _386  and  _388
REMARK  153  A    between atoms: _388  and  _389
REMARK  154  A    between atoms: _388  and  _391
REMARK  155  A    between atoms: _391  and  _392
REMARK  156  A    between atoms: _395  and  _397
REMARK  157  A    between atoms: _397  and  _398
REMARK  158  A    between atoms: _397  and  _400
REMARK  159  A    between atoms: _400  and  _401
REMARK  160  A    between atoms: _406  and  _407
REMARK  161  A    between atoms: _409  and  _411
REMARK  162  A    between atoms: _411  and  _412
REMARK  163  A    between atoms: _411  and  _414
REMARK  164  A    between atoms: _414  and  _415
REMARK  165  A    between atoms: _420  and  _421
REMARK  166  A    between atoms: _423  and  _425
REMARK  167  A    between atoms: _425  and  _426
REMARK  168  A    between atoms: _425  and  _428
REMARK  169  A    between atoms: _428  and  _429
REMARK  170  A    between atoms: _432  and  _434
REMARK  171  A    between atoms: _434  and  _435
REMARK  172  A    between atoms: _434  and  _437
REMARK  173  A    between atoms: _437  and  _438
REMARK  174  A    between atoms: _438  and  _439
REMARK  175  A    between atoms: _444  and  _446
REMARK  176  A    between atoms: _446  and  _447
REMARK  177  A    between atoms: _446  and  _449
REMARK  178  A    between atoms: _449  and  _450
REMARK  179  A    between atoms: _460  and  _462
REMARK  180  A    between atoms: _462  and  _463
REMARK  181  A    between atoms: _462  and  _465
REMARK  182  A    between atoms: _465  and  _466
REMARK  183  A    between atoms: _466  and  _467
REMARK  184  A    between atoms: _469  and  _471
REMARK  185  A    between atoms: _471  and  _472
REMARK  186  A    between atoms: _471  and  _474
REMARK  187  A    between atoms: _474  and  _475
REMARK  188  A    between atoms: _480  and  _482
REMARK  189  A    between atoms: _482  and  _483
REMARK  190  A    between atoms: _485  and  _487
REMARK  191  A    between atoms: _487  and  _488
REMARK  192  A    between atoms: _487  and  _490
REMARK  193  A    between atoms: _490  and  _491
REMARK  194  A    between atoms: _491  and  _814
REMARK  195  A    between atoms: _492  and  _494
REMARK  196  A    between atoms: _494  and  _495
REMARK  197  A    between atoms: _494  and  _497
REMARK  198  A    between atoms: _497  and  _498
REMARK  199  A    between atoms: _498  and  _499
REMARK  200  A    between atoms: _502  and  _504
REMARK  201  A    between atoms: _504  and  _505
REMARK  202  A    between atoms: _504  and  _507
REMARK  203  A    between atoms: _507  and  _508
REMARK  204  A    between atoms: _508  and  _509
REMARK  205  A    between atoms: _514  and  _516
REMARK  206  A    between atoms: _516  and  _517
REMARK  207  A    between atoms: _516  and  _519
REMARK  208  A    between atoms: _519  and  _520
REMARK  209  A    between atoms: _526  and  _528
REMARK  210  A    between atoms: _528  and  _529
REMARK  211  A    between atoms: _532  and  _534
REMARK  212  A    between atoms: _534  and  _535
REMARK  213  A    between atoms: _534  and  _537
REMARK  214  A    between atoms: _537  and  _538
REMARK  215  A    between atoms: _543  and  _544
REMARK  216  A    between atoms: _546  and  _548
REMARK  217  A    between atoms: _548  and  _549
REMARK  218  A    between atoms: _548  and  _551
REMARK  219  A    between atoms: _551  and  _552
REMARK  220  A    between atoms: _557  and  _558
REMARK  221  A    between atoms: _560  and  _562
REMARK  222  A    between atoms: _562  and  _563
REMARK  223  A    between atoms: _562  and  _565
REMARK  224  A    between atoms: _565  and  _566
REMARK  225  A    between atoms: _569  and  _571
REMARK  226  A    between atoms: _571  and  _572
REMARK  227  A    between atoms: _571  and  _574
REMARK  228  A    between atoms: _574  and  _575
REMARK  229  A    between atoms: _578  and  _580
REMARK  230  A    between atoms: _580  and  _581
REMARK  231  A    between atoms: _580  and  _583
REMARK  232  A    between atoms: _583  and  _584
REMARK  233  A    between atoms: _587  and  _589
REMARK  234  A    between atoms: _589  and  _590
REMARK  235  A    between atoms: _589  and  _592
REMARK  236  A    between atoms: _592  and  _593
REMARK  237  A    between atoms: _603  and  _605
REMARK  238  A    between atoms: _605  and  _606
REMARK  239  A    between atoms: _605  and  _608
REMARK  240  A    between atoms: _608  and  _609
REMARK  241  A    between atoms: _612  and  _614
REMARK  242  A    between atoms: _614  and  _615
REMARK  243  A    between atoms: _618  and  _620
REMARK  244  A    between atoms: _620  and  _621
REMARK  245  A    between atoms: _624  and  _626
REMARK  246  A    between atoms: _626  and  _627
REMARK  247  A    between atoms: _626  and  _629
REMARK  248  A    between atoms: _629  and  _630
REMARK  249  A    between atoms: _630  and  _631
REMARK  250  A    between atoms: _636  and  _638
REMARK  251  A    between atoms: _638  and  _639
REMARK  252  A    between atoms: _638  and  _641
REMARK  253  A    between atoms: _641  and  _642
REMARK  254  A    between atoms: _645  and  _647
REMARK  255  A    between atoms: _647  and  _648
REMARK  256  A    between atoms: _647  and  _650
REMARK  257  A    between atoms: _650  and  _651
REMARK  258  A    between atoms: _653  and  _655
REMARK  259  A    between atoms: _655  and  _656
REMARK  260  A    between atoms: _655  and  _658
REMARK  261  A    between atoms: _658  and  _659
REMARK  262  A    between atoms: _659  and  _660
REMARK  263  A    between atoms: _663  and  _665
REMARK  264  A    between atoms: _665  and  _666
REMARK  265  A    between atoms: _665  and  _668
REMARK  266  A    between atoms: _668  and  _669
REMARK  267  A    between atoms: _669  and  _670
REMARK  268  A    between atoms: _675  and  _677
REMARK  269  A    between atoms: _677  and  _678
REMARK  270  A    between atoms: _677  and  _680
REMARK  271  A    between atoms: _680  and  _681
REMARK  272  A    between atoms: _681  and  _682
REMARK  273  A    between atoms: _682  and  _683
REMARK  274  A    between atoms: _683  and  _684
REMARK  275  A    between atoms: _688  and  _690
REMARK  276  A    between atoms: _690  and  _691
REMARK  277  A    between atoms: _690  and  _693
REMARK  278  A    between atoms: _693  and  _694
REMARK  279  A    between atoms: _696  and  _698
REMARK  280  A    between atoms: _698  and  _699
REMARK  281  A    between atoms: _698  and  _701
REMARK  282  A    between atoms: _701  and  _702
REMARK  283  A    between atoms: _707  and  _709
REMARK  284  A    between atoms: _709  and  _710
REMARK  285  A    between atoms: _713  and  _715
REMARK  286  A    between atoms: _715  and  _716
REMARK  287  A    between atoms: _715  and  _718
REMARK  288  A    between atoms: _718  and  _719
REMARK  289  A    between atoms: _721  and  _723
REMARK  290  A    between atoms: _723  and  _724
REMARK  291  A    between atoms: _723  and  _726
REMARK  292  A    between atoms: _726  and  _727
REMARK  293  A    between atoms: _727  and  _728
REMARK  294  A    between atoms: _731  and  _733
REMARK  295  A    between atoms: _733  and  _734
REMARK  296  A    between atoms: _737  and  _739
REMARK  297  A    between atoms: _739  and  _740
REMARK  298  A    between atoms: _739  and  _742
REMARK  299  A    between atoms: _742  and  _743
REMARK  300  A    between atoms: _743  and  _744
REMARK  301  A    between atoms: _747  and  _749
REMARK  302  A    between atoms: _749  and  _750
REMARK  303  A    between atoms: _749  and  _752
REMARK  304  A    between atoms: _752  and  _753
REMARK  305  A    between atoms: _758  and  _760
REMARK  306  A    between atoms: _760  and  _761
REMARK  307  A    between atoms: _760  and  _763
REMARK  308  A    between atoms: _763  and  _764
REMARK  309  A    between atoms: _764  and  _765
REMARK  310  A    between atoms: _770  and  _772
REMARK  311  A    between atoms: _772  and  _773
REMARK  312  A    between atoms: _776  and  _778
REMARK  313  A    between atoms: _778  and  _779
REMARK  314  A    between atoms: _778  and  _781
REMARK  315  A    between atoms: _781  and  _782
REMARK  316  A    between atoms: _787  and  _788
REMARK  317  A    between atoms: _790  and  _792
REMARK  318  A    between atoms: _792  and  _793
REMARK  319  A    between atoms: _792  and  _795
REMARK  320  A    between atoms: _795  and  _796
REMARK  321  A    between atoms: _799  and  _801
REMARK  322  A    between atoms: _801  and  _802
REMARK  323  A    between atoms: _801  and  _804
REMARK  324  A    between atoms: _804  and  _805
REMARK  325  A    between atoms: _808  and  _810
REMARK  326  A    between atoms: _810  and  _811
REMARK  327  A    between atoms: _810  and  _813
REMARK  328  A    between atoms: _813  and  _814
REMARK  329  A    between atoms: _815  and  _817
REMARK  330  A    between atoms: _817  and  _818
REMARK  331  A    between atoms: _817  and  _820
REMARK  332  A    between atoms: _823  and  _825
REMARK  333  A    between atoms: _825  and  _826
REMARK  334  A    between atoms: _825  and  _828
REMARK  335  A    between atoms: _828  and  _829
REMARK  336  A    between atoms: _829  and  _830
REMARK  337  A    between atoms: _833  and  _835
REMARK  338  A    between atoms: _835  and  _836
REMARK  339  A    between atoms: _835  and  _838
REMARK  340  A    between atoms: _838  and  _839
REMARK  341  A    between atoms: _849  and  _851
REMARK  342  A    between atoms: _851  and  _852
REMARK  343  A    between atoms: _851  and  _854
REMARK  344  A    between atoms: _854  and  _855
REMARK  345  A    between atoms: _858  and  _860
REMARK  346  A    between atoms: _860  and  _861
REMARK  347  A    between atoms: _860  and  _863
REMARK  348  A    between atoms: _863  and  _864
REMARK  349  A    between atoms: _864  and  _865
REMARK  350  A    between atoms: _865  and  _866
REMARK  351  A    between atoms: _866  and  _867
REMARK  352  A    between atoms: _871  and  _873
REMARK  353  A    between atoms: _873  and  _874
REMARK  354  A    between atoms: _873  and  _876
REMARK  355  A    between atoms: _876  and  _877
REMARK  356  A    between atoms: _882  and  _883
REMARK                            x       y       z     vdW  Elec       q    Type
REMARK                         _______ _______ _______ _____ _____    ______ ____
ROOT
ATOM      1  O   HOH     1       5.666 -16.796  19.279  0.00  0.00    +0.000 OA
ENDROOT
TORSDOF 0
REMARK  Name = ../refined-set-2016/3bzf/3bzf_pocket.pdb
REMARK  356 active torsions:
REMARK  status: ('A' for Active; 'I' for Inactive)
REMARK    1  A    between atoms: _1  and  _3
REMARK    2  A    between atoms: _3  and  _4
REMARK    3  A    between atoms: _3  and  _6
REMARK    4  A    between atoms: _6  and  _7
REMARK    5  A    between atoms: _10  and  _12
REMARK    6  A    between atoms: _12  and  _13
REMARK    7  A    between atoms: _12  and  _15
REMARK    8  A    between atoms: _15  and  _16
REMARK    9  A    between atoms: _16  and  _17
REMARK   10  A    between atoms: _17  and  _18
REMARK   11  A    between atoms: _18  and  _19
REMARK   12  A    between atoms: _23  and  _25
REMARK   13  A    between atoms: _25  and  _26
REMARK   14  A    between atoms: _25  and  _28
REMARK   15  A    between atoms: _28  and  _29
REMARK   16  A    between atoms: _34  and  _35
REMARK   17  A    between atoms: _37  and  _39
REMARK   18  A    between atoms: _39  and  _40
REMARK   19  A    between atoms: _39  and  _42
REMARK   20  A    between atoms: _42  and  _43
REMARK   21  A    between atoms: _49  and  _51
REMARK   22  A    between atoms: _51  and  _52
REMARK   23  A    between atoms: _51  and  _54
REMARK   24  A    between atoms: _54  and  _55
REMARK   25  A    between atoms: _60  and  _62
REMARK   26  A    between atoms: _62  and  _63
REMARK   27  A    between atoms: _62  and  _65
REMARK   28  A    between atoms: _65  and  _66
REMARK   29  A    between atoms: _72  and  _74
REMARK   30  A    between atoms: _74  and  _75
REMARK   31  A    between atoms: _74  and  _77
REMARK   32  A    between atoms: _77  and  _78
REMARK   33  A    between atoms: _81  and  _83
REMARK   34  A    between atoms: _83  and  _84
REMARK   35  A    between atoms: _83  and  _86
REMARK   36  A    between atoms: _86  and  _87
REMARK   37  A    between atoms: _89  and  _91
REMARK   38  A    between atoms: _91  and  _92
REMARK   39  A    between atoms: _91  and  _94
REMARK   40  A    between atoms: _97  and  _99
REMARK   41  A    between atoms: _99  and  _100
REMARK   42  A    between atoms: _102  and  _104
REMARK   43  A    between atoms: _104  and  _105
REMARK   44  A    between atoms: _104  and  _107
REMARK   45  A    between atoms: _107  and  _108
REMARK   46  A    between atoms: _114  and  _116
REMARK   47  A    between atoms: _116  and  _117
REMARK   48  A    between atoms: _116  and  _119
REMARK   49  A    between atoms: _122  and  _124
REMARK   50  A    between atoms: _124  and  _125
REMARK   51  A    between atoms: _124  and  _127
REMARK   52  A    between atoms: _127  and  _128
REMARK   53  A    between atoms: _128  and  _129
REMARK   54  A    between atoms: _129  and  _130
REMARK   55  A    between atoms: _139  and  _141
REMARK   56  A    between atoms: _141  and  _142
REMARK   57  A    between atoms: _141  and  _144
REMARK   58  A    between atoms: _144  and  _145
REMARK   59  A    between atoms: _151  and  _153
REMARK   60  A    between atoms: _153  and  _154
REMARK   61  A    between atoms: _153  and  _156
REMARK   62  A    between atoms: _156  and  _157
REMARK   63  A    between atoms: _157  and  _158
REMARK   64  A    between atoms: _160  and  _162
REMARK   65  A    between atoms: _162  and  _163
REMARK   66  A    between atoms: _162  and  _165
REMARK   67  A    between atoms: _165  and  _166
REMARK   68  A    between atoms: _171  and  _172
REMARK   69  A    between atoms: _174  and  _176
REMARK   70  A    between atoms: _176  and  _177
REMARK   71  A    between atoms: _176  and  _179
REMARK   72  A    between atoms: _179  and  _180
REMARK   73  A    between atoms: _180  and  _181
REMARK   74  A    between atoms: _181  and  _182
REMARK   75  A    between atoms: _191  and  _193
REMARK   76  A    between atoms: _193  and  _194
REMARK   77  A    between atoms: _193  and  _196
REMARK   78  A    between atoms: _196  and  _197
REMARK   79  A    between atoms: _197  and  _198
REMARK   80  A    between atoms: _201  and  _203
REMARK   81  A    between atoms: _203  and  _204
REMARK   82  A    between atoms: _203  and  _206
REMARK   83  A    between atoms: _206  and  _207
REMARK   84  A    between atoms: _210  and  _212
REMARK   85  A    between atoms: _212  and  _213
REMARK   86  A    between atoms: _212  and  _215
REMARK   87  A    between atoms: _215  and  _216
REMARK   88  A    between atoms: _216  and  _217
REMARK   89  A    between atoms: _217  and  _218
REMARK   90  A    between atoms: _227  and  _229
REMARK   91  A    between atoms: _229  and  _230
REMARK   92  A    between atoms: _229  and  _232
REMARK   93  A    between atoms: _232  and  _233
REMARK   94  A    between atoms: _235  and  _237
REMARK   95  A    between atoms: _237  and  _238
REMARK   96  A    between atoms: _241  and  _243
REMARK   97  A    between atoms: _243  and  _244
REMARK   98  A    between atoms: _243  and  _246
REMARK   99  A    between atoms: _246  and  _247
REMARK  100  A    between atoms: _247  and  _248
REMARK  101  A    between atoms: _248  and  _249
REMARK  102  A    between atoms: _258  and  _260
REMARK  103  A    between atoms: _260  and  _261
REMARK  104  A    between atoms: _260  and  _263
REMARK  105  A    between atoms: _263  and  _264
REMARK  106  A    between atoms: _267  and  _269
REMARK  107  A    between atoms: _269  and  _270
REMARK  108  A    between atoms: _269  and  _272
REMARK  109  A    between atoms: _272  and  _273
REMARK  110  A    between atoms: _276  and  _278
REMARK  111  A    between atoms: _278  and  _279
REMARK  112  A    between atoms: _282  and  _284
REMARK  113  A    between atoms: _284  and  _285
REMARK  114  A    between atoms: _284  and  _287
REMARK  115  A    between atoms: _287  and  _288
REMARK  116  A    between atoms: _288  and  _289
REMARK  117  A    between atoms: _294  and  _296
REMARK  118  A    between atoms: _296  and  _297
REMARK  119  A    between atoms: _296  and  _299
REMARK  120  A    between atoms: _299  and  _300
REMARK  121  A    between atoms: _303  and  _305
REMARK  122  A    between atoms: _305  and  _306
REMARK  123  A    between atoms: _305  and  _308
REMARK  124  A    between atoms: _308  and  _309
REMARK  125  A    between atoms: _315  and  _317
REMARK  126  A    between atoms: _317  and  _318
REMARK  127  A    between atoms: _317  and  _320
REMARK  128  A    between atoms: _320  and  _321
REMARK  129  A    between atoms: _321  and  _322
REMARK  130  A    between atoms: _322  and  _323
REMARK  131  A    between atoms: _332  and  _334
REMARK  132  A    between atoms: _334  and  _335
REMARK  133  A    between atoms: _334  and  _337
REMARK  134  A    between atoms: _340  and  _342
REMARK  135  A    between atoms: _342  and  _343
REMARK  136  A    between atoms: _342  and  _345
REMARK  137  A    between atoms: _345  and  _346
REMARK  138  A    between atoms: _351  and  _353
REMARK  139  A    between atoms: _353  and  _354
REMARK  140  A    between atoms: _353  and  _356
REMARK  141  A    between atoms: _356  and  _357
REMARK  142  A    between atoms: _360  and  _362
REMARK  143  A    between atoms: _362  and  _363
REMARK  144  A    between atoms: _362  and  _365
REMARK  145  A    between atoms: _365  and  _366
REMARK  146  A    between atoms: _366  and  _367
REMARK  147  A    between atoms: _367  and  _368
REMARK  148  A    between atoms: _377  and  _379
REMARK  149  A    between atoms: _379  and  _380
REMARK  150  A    between atoms: _379  and  _382
REMARK  151  A    between atoms: _382  and  _383
REMARK  152  A    between atoms: _386  and  _388
REMARK  153  A    between atoms: _388  and  _389
REMARK  154  A    between atoms: _388  and  _391
REMARK  155  A    between atoms: _391  and  _392
REMARK  156  A    between atoms: _395  and  _397
REMARK  157  A    between atoms: _397  and  _398
REMARK  158  A    between atoms: _397  and  _400
REMARK  159  A    between atoms: _400  and  _401
REMARK  160  A    between atoms: _406  and  _407
REMARK  161  A    between atoms: _409  and  _411
REMARK  162  A    between atoms: _411  and  _412
REMARK  163  A    between atoms: _411  and  _414
REMARK  164  A    between atoms: _414  and  _415
REMARK  165  A    between atoms: _420  and  _421
REMARK  166  A    between atoms: _423  and  _425
REMARK  167  A    between atoms: _425  and  _426
REMARK  168  A    between atoms: _425  and  _428
REMARK  169  A    between atoms: _428  and  _429
REMARK  170  A    between atoms: _432  and  _434
REMARK  171  A    between atoms: _434  and  _435
REMARK  172  A    between atoms: _434  and  _437
REMARK  173  A    between atoms: _437  and  _438
REMARK  174  A    between atoms: _438  and  _439
REMARK  175  A    between atoms: _444  and  _446
REMARK  176  A    between atoms: _446  and  _447
REMARK  177  A    between atoms: _446  and  _449
REMARK  178  A    between atoms: _449  and  _450
REMARK  179  A    between atoms: _460  and  _462
REMARK  180  A    between atoms: _462  and  _463
REMARK  181  A    between atoms: _462  and  _465
REMARK  182  A    between atoms: _465  and  _466
REMARK  183  A    between atoms: _466  and  _467
REMARK  184  A    between atoms: _469  and  _471
REMARK  185  A    between atoms: _471  and  _472
REMARK  186  A    between atoms: _471  and  _474
REMARK  187  A    between atoms: _474  and  _475
REMARK  188  A    between atoms: _480  and  _482
REMARK  189  A    between atoms: _482  and  _483
REMARK  190  A    between atoms: _485  and  _487
REMARK  191  A    between atoms: _487  and  _488
REMARK  192  A    between atoms: _487  and  _490
REMARK  193  A    between atoms: _490  and  _491
REMARK  194  A    between atoms: _491  and  _814
REMARK  195  A    between atoms: _492  and  _494
REMARK  196  A    between atoms: _494  and  _495
REMARK  197  A    between atoms: _494  and  _497
REMARK  198  A    between atoms: _497  and  _498
REMARK  199  A    between atoms: _498  and  _499
REMARK  200  A    between atoms: _502  and  _504
REMARK  201  A    between atoms: _504  and  _505
REMARK  202  A    between atoms: _504  and  _507
REMARK  203  A    between atoms: _507  and  _508
REMARK  204  A    between atoms: _508  and  _509
REMARK  205  A    between atoms: _514  and  _516
REMARK  206  A    between atoms: _516  and  _517
REMARK  207  A    between atoms: _516  and  _519
REMARK  208  A    between atoms: _519  and  _520
REMARK  209  A    between atoms: _526  and  _528
REMARK  210  A    between atoms: _528  and  _529
REMARK  211  A    between atoms: _532  and  _534
REMARK  212  A    between atoms: _534  and  _535
REMARK  213  A    between atoms: _534  and  _537
REMARK  214  A    between atoms: _537  and  _538
REMARK  215  A    between atoms: _543  and  _544
REMARK  216  A    between atoms: _546  and  _548
REMARK  217  A    between atoms: _548  and  _549
REMARK  218  A    between atoms: _548  and  _551
REMARK  219  A    between atoms: _551  and  _552
REMARK  220  A    between atoms: _557  and  _558
REMARK  221  A    between atoms: _560  and  _562
REMARK  222  A    between atoms: _562  and  _563
REMARK  223  A    between atoms: _562  and  _565
REMARK  224  A    between atoms: _565  and  _566
REMARK  225  A    between atoms: _569  and  _571
REMARK  226  A    between atoms: _571  and  _572
REMARK  227  A    between atoms: _571  and  _574
REMARK  228  A    between atoms: _574  and  _575
REMARK  229  A    between atoms: _578  and  _580
REMARK  230  A    between atoms: _580  and  _581
REMARK  231  A    between atoms: _580  and  _583
REMARK  232  A    between atoms: _583  and  _584
REMARK  233  A    between atoms: _587  and  _589
REMARK  234  A    between atoms: _589  and  _590
REMARK  235  A    between atoms: _589  and  _592
REMARK  236  A    between atoms: _592  and  _593
REMARK  237  A    between atoms: _603  and  _605
REMARK  238  A    between atoms: _605  and  _606
REMARK  239  A    between atoms: _605  and  _608
REMARK  240  A    between atoms: _608  and  _609
REMARK  241  A    between atoms: _612  and  _614
REMARK  242  A    between atoms: _614  and  _615
REMARK  243  A    between atoms: _618  and  _620
REMARK  244  A    between atoms: _620  and  _621
REMARK  245  A    between atoms: _624  and  _626
REMARK  246  A    between atoms: _626  and  _627
REMARK  247  A    between atoms: _626  and  _629
REMARK  248  A    between atoms: _629  and  _630
REMARK  249  A    between atoms: _630  and  _631
REMARK  250  A    between atoms: _636  and  _638
REMARK  251  A    between atoms: _638  and  _639
REMARK  252  A    between atoms: _638  and  _641
REMARK  253  A    between atoms: _641  and  _642
REMARK  254  A    between atoms: _645  and  _647
REMARK  255  A    between atoms: _647  and  _648
REMARK  256  A    between atoms: _647  and  _650
REMARK  257  A    between atoms: _650  and  _651
REMARK  258  A    between atoms: _653  and  _655
REMARK  259  A    between atoms: _655  and  _656
REMARK  260  A    between atoms: _655  and  _658
REMARK  261  A    between atoms: _658  and  _659
REMARK  262  A    between atoms: _659  and  _660
REMARK  263  A    between atoms: _663  and  _665
REMARK  264  A    between atoms: _665  and  _666
REMARK  265  A    between atoms: _665  and  _668
REMARK  266  A    between atoms: _668  and  _669
REMARK  267  A    between atoms: _669  and  _670
REMARK  268  A    between atoms: _675  and  _677
REMARK  269  A    between atoms: _677  and  _678
REMARK  270  A    between atoms: _677  and  _680
REMARK  271  A    between atoms: _680  and  _681
REMARK  272  A    between atoms: _681  and  _682
REMARK  273  A    between atoms: _682  and  _683
REMARK  274  A    between atoms: _683  and  _684
REMARK  275  A    between atoms: _688  and  _690
REMARK  276  A    between atoms: _690  and  _691
REMARK  277  A    between atoms: _690  and  _693
REMARK  278  A    between atoms: _693  and  _694
REMARK  279  A    between atoms: _696  and  _698
REMARK  280  A    between atoms: _698  and  _699
REMARK  281  A    between atoms: _698  and  _701
REMARK  282  A    between atoms: _701  and  _702
REMARK  283  A    between atoms: _707  and  _709
REMARK  284  A    between atoms: _709  and  _710
REMARK  285  A    between atoms: _713  and  _715
REMARK  286  A    between atoms: _715  and  _716
REMARK  287  A    between atoms: _715  and  _718
REMARK  288  A    between atoms: _718  and  _719
REMARK  289  A    between atoms: _721  and  _723
REMARK  290  A    between atoms: _723  and  _724
REMARK  291  A    between atoms: _723  and  _726
REMARK  292  A    between atoms: _726  and  _727
REMARK  293  A    between atoms: _727  and  _728
REMARK  294  A    between atoms: _731  and  _733
REMARK  295  A    between atoms: _733  and  _734
REMARK  296  A    between atoms: _737  and  _739
REMARK  297  A    between atoms: _739  and  _740
REMARK  298  A    between atoms: _739  and  _742
REMARK  299  A    between atoms: _742  and  _743
REMARK  300  A    between atoms: _743  and  _744
REMARK  301  A    between atoms: _747  and  _749
REMARK  302  A    between atoms: _749  and  _750
REMARK  303  A    between atoms: _749  and  _752
REMARK  304  A    between atoms: _752  and  _753
REMARK  305  A    between atoms: _758  and  _760
REMARK  306  A    between atoms: _760  and  _761
REMARK  307  A    between atoms: _760  and  _763
REMARK  308  A    between atoms: _763  and  _764
REMARK  309  A    between atoms: _764  and  _765
REMARK  310  A    between atoms: _770  and  _772
REMARK  311  A    between atoms: _772  and  _773
REMARK  312  A    between atoms: _776  and  _778
REMARK  313  A    between atoms: _778  and  _779
REMARK  314  A    between atoms: _778  and  _781
REMARK  315  A    between atoms: _781  and  _782
REMARK  316  A    between atoms: _787  and  _788
REMARK  317  A    between atoms: _790  and  _792
REMARK  318  A    between atoms: _792  and  _793
REMARK  319  A    between atoms: _792  and  _795
REMARK  320  A    between atoms: _795  and  _796
REMARK  321  A    between atoms: _799  and  _801
REMARK  322  A    between atoms: _801  and  _802
REMARK  323  A    between atoms: _801  and  _804
REMARK  324  A    between atoms: _804  and  _805
REMARK  325  A    between atoms: _808  and  _810
REMARK  326  A    between atoms: _810  and  _811
REMARK  327  A    between atoms: _810  and  _813
REMARK  328  A    between atoms: _813  and  _814
REMARK  329  A    between atoms: _815  and  _817
REMARK  330  A    between atoms: _817  and  _818
REMARK  331  A    between atoms: _817  and  _820
REMARK  332  A    between atoms: _823  and  _825
REMARK  333  A    between atoms: _825  and  _826
REMARK  334  A    between atoms: _825  and  _828
REMARK  335  A    between atoms: _828  and  _829
REMARK  336  A    between atoms: _829  and  _830
REMARK  337  A    between atoms: _833  and  _835
REMARK  338  A    between atoms: _835  and  _836
REMARK  339  A    between atoms: _835  and  _838
REMARK  340  A    between atoms: _838  and  _839
REMARK  341  A    between atoms: _849  and  _851
REMARK  342  A    between atoms: _851  and  _852
REMARK  343  A    between atoms: _851  and  _854
REMARK  344  A    between atoms: _854  and  _855
REMARK  345  A    between atoms: _858  and  _860
REMARK  346  A    between atoms: _860  and  _861
REMARK  347  A    between atoms: _860  and  _863
REMARK  348  A    between atoms: _863  and  _864
REMARK  349  A    between atoms: _864  and  _865
REMARK  350  A    between atoms: _865  and  _866
REMARK  351  A    between atoms: _866  and  _867
REMARK  352  A    between atoms: _871  and  _873
REMARK  353  A    between atoms: _873  and  _874
REMARK  354  A    between atoms: _873  and  _876
REMARK  355  A    between atoms: _876  and  _877
REMARK  356  A    between atoms: _882  and  _883
REMARK                            x       y       z     vdW  Elec       q    Type
REMARK                         _______ _______ _______ _____ _____    ______ ____
ROOT
ATOM      1  O   HOH     1       1.259  -9.827  23.282  0.00  0.00    +0.000 OA
ENDROOT
TORSDOF 0
REMARK  Name = ../refined-set-2016/3bzf/3bzf_pocket.pdb
REMARK  356 active torsions:
REMARK  status: ('A' for Active; 'I' for Inactive)
REMARK    1  A    between atoms: _1  and  _3
REMARK    2  A    between atoms: _3  and  _4
REMARK    3  A    between atoms: _3  and  _6
REMARK    4  A    between atoms: _6  and  _7
REMARK    5  A    between atoms: _10  and  _12
REMARK    6  A    between atoms: _12  and  _13
REMARK    7  A    between atoms: _12  and  _15
REMARK    8  A    between atoms: _15  and  _16
REMARK    9  A    between atoms: _16  and  _17
REMARK   10  A    between atoms: _17  and  _18
REMARK   11  A    between atoms: _18  and  _19
REMARK   12  A    between atoms: _23  and  _25
REMARK   13  A    between atoms: _25  and  _26
REMARK   14  A    between atoms: _25  and  _28
REMARK   15  A    between atoms: _28  and  _29
REMARK   16  A    between atoms: _34  and  _35
REMARK   17  A    between atoms: _37  and  _39
REMARK   18  A    between atoms: _39  and  _40
REMARK   19  A    between atoms: _39  and  _42
REMARK   20  A    between atoms: _42  and  _43
REMARK   21  A    between atoms: _49  and  _51
REMARK   22  A    between atoms: _51  and  _52
REMARK   23  A    between atoms: _51  and  _54
REMARK   24  A    between atoms: _54  and  _55
REMARK   25  A    between atoms: _60  and  _62
REMARK   26  A    between atoms: _62  and  _63
REMARK   27  A    between atoms: _62  and  _65
REMARK   28  A    between atoms: _65  and  _66
REMARK   29  A    between atoms: _72  and  _74
REMARK   30  A    between atoms: _74  and  _75
REMARK   31  A    between atoms: _74  and  _77
REMARK   32  A    between atoms: _77  and  _78
REMARK   33  A    between atoms: _81  and  _83
REMARK   34  A    between atoms: _83  and  _84
REMARK   35  A    between atoms: _83  and  _86
REMARK   36  A    between atoms: _86  and  _87
REMARK   37  A    between atoms: _89  and  _91
REMARK   38  A    between atoms: _91  and  _92
REMARK   39  A    between atoms: _91  and  _94
REMARK   40  A    between atoms: _97  and  _99
REMARK   41  A    between atoms: _99  and  _100
REMARK   42  A    between atoms: _102  and  _104
REMARK   43  A    between atoms: _104  and  _105
REMARK   44  A    between atoms: _104  and  _107
REMARK   45  A    between atoms: _107  and  _108
REMARK   46  A    between atoms: _114  and  _116
REMARK   47  A    between atoms: _116  and  _117
REMARK   48  A    between atoms: _116  and  _119
REMARK   49  A    between atoms: _122  and  _124
REMARK   50  A    between atoms: _124  and  _125
REMARK   51  A    between atoms: _124  and  _127
REMARK   52  A    between atoms: _127  and  _128
REMARK   53  A    between atoms: _128  and  _129
REMARK   54  A    between atoms: _129  and  _130
REMARK   55  A    between atoms: _139  and  _141
REMARK   56  A    between atoms: _141  and  _142
REMARK   57  A    between atoms: _141  and  _144
REMARK   58  A    between atoms: _144  and  _145
REMARK   59  A    between atoms: _151  and  _153
REMARK   60  A    between atoms: _153  and  _154
REMARK   61  A    between atoms: _153  and  _156
REMARK   62  A    between atoms: _156  and  _157
REMARK   63  A    between atoms: _157  and  _158
REMARK   64  A    between atoms: _160  and  _162
REMARK   65  A    between atoms: _162  and  _163
REMARK   66  A    between atoms: _162  and  _165
REMARK   67  A    between atoms: _165  and  _166
REMARK   68  A    between atoms: _171  and  _172
REMARK   69  A    between atoms: _174  and  _176
REMARK   70  A    between atoms: _176  and  _177
REMARK   71  A    between atoms: _176  and  _179
REMARK   72  A    between atoms: _179  and  _180
REMARK   73  A    between atoms: _180  and  _181
REMARK   74  A    between atoms: _181  and  _182
REMARK   75  A    between atoms: _191  and  _193
REMARK   76  A    between atoms: _193  and  _194
REMARK   77  A    between atoms: _193  and  _196
REMARK   78  A    between atoms: _196  and  _197
REMARK   79  A    between atoms: _197  and  _198
REMARK   80  A    between atoms: _201  and  _203
REMARK   81  A    between atoms: _203  and  _204
REMARK   82  A    between atoms: _203  and  _206
REMARK   83  A    between atoms: _206  and  _207
REMARK   84  A    between atoms: _210  and  _212
REMARK   85  A    between atoms: _212  and  _213
REMARK   86  A    between atoms: _212  and  _215
REMARK   87  A    between atoms: _215  and  _216
REMARK   88  A    between atoms: _216  and  _217
REMARK   89  A    between atoms: _217  and  _218
REMARK   90  A    between atoms: _227  and  _229
REMARK   91  A    between atoms: _229  and  _230
REMARK   92  A    between atoms: _229  and  _232
REMARK   93  A    between atoms: _232  and  _233
REMARK   94  A    between atoms: _235  and  _237
REMARK   95  A    between atoms: _237  and  _238
REMARK   96  A    between atoms: _241  and  _243
REMARK   97  A    between atoms: _243  and  _244
REMARK   98  A    between atoms: _243  and  _246
REMARK   99  A    between atoms: _246  and  _247
REMARK  100  A    between atoms: _247  and  _248
REMARK  101  A    between atoms: _248  and  _249
REMARK  102  A    between atoms: _258  and  _260
REMARK  103  A    between atoms: _260  and  _261
REMARK  104  A    between atoms: _260  and  _263
REMARK  105  A    between atoms: _263  and  _264
REMARK  106  A    between atoms: _267  and  _269
REMARK  107  A    between atoms: _269  and  _270
REMARK  108  A    between atoms: _269  and  _272
REMARK  109  A    between atoms: _272  and  _273
REMARK  110  A    between atoms: _276  and  _278
REMARK  111  A    between atoms: _278  and  _279
REMARK  112  A    between atoms: _282  and  _284
REMARK  113  A    between atoms: _284  and  _285
REMARK  114  A    between atoms: _284  and  _287
REMARK  115  A    between atoms: _287  and  _288
REMARK  116  A    between atoms: _288  and  _289
REMARK  117  A    between atoms: _294  and  _296
REMARK  118  A    between atoms: _296  and  _297
REMARK  119  A    between atoms: _296  and  _299
REMARK  120  A    between atoms: _299  and  _300
REMARK  121  A    between atoms: _303  and  _305
REMARK  122  A    between atoms: _305  and  _306
REMARK  123  A    between atoms: _305  and  _308
REMARK  124  A    between atoms: _308  and  _309
REMARK  125  A    between atoms: _315  and  _317
REMARK  126  A    between atoms: _317  and  _318
REMARK  127  A    between atoms: _317  and  _320
REMARK  128  A    between atoms: _320  and  _321
REMARK  129  A    between atoms: _321  and  _322
REMARK  130  A    between atoms: _322  and  _323
REMARK  131  A    between atoms: _332  and  _334
REMARK  132  A    between atoms: _334  and  _335
REMARK  133  A    between atoms: _334  and  _337
REMARK  134  A    between atoms: _340  and  _342
REMARK  135  A    between atoms: _342  and  _343
REMARK  136  A    between atoms: _342  and  _345
REMARK  137  A    between atoms: _345  and  _346
REMARK  138  A    between atoms: _351  and  _353
REMARK  139  A    between atoms: _353  and  _354
REMARK  140  A    between atoms: _353  and  _356
REMARK  141  A    between atoms: _356  and  _357
REMARK  142  A    between atoms: _360  and  _362
REMARK  143  A    between atoms: _362  and  _363
REMARK  144  A    between atoms: _362  and  _365
REMARK  145  A    between atoms: _365  and  _366
REMARK  146  A    between atoms: _366  and  _367
REMARK  147  A    between atoms: _367  and  _368
REMARK  148  A    between atoms: _377  and  _379
REMARK  149  A    between atoms: _379  and  _380
REMARK  150  A    between atoms: _379  and  _382
REMARK  151  A    between atoms: _382  and  _383
REMARK  152  A    between atoms: _386  and  _388
REMARK  153  A    between atoms: _388  and  _389
REMARK  154  A    between atoms: _388  and  _391
REMARK  155  A    between atoms: _391  and  _392
REMARK  156  A    between atoms: _395  and  _397
REMARK  157  A    between atoms: _397  and  _398
REMARK  158  A    between atoms: _397  and  _400
REMARK  159  A    between atoms: _400  and  _401
REMARK  160  A    between atoms: _406  and  _407
REMARK  161  A    between atoms: _409  and  _411
REMARK  162  A    between atoms: _411  and  _412
REMARK  163  A    between atoms: _411  and  _414
REMARK  164  A    between atoms: _414  and  _415
REMARK  165  A    between atoms: _420  and  _421
REMARK  166  A    between atoms: _423  and  _425
REMARK  167  A    between atoms: _425  and  _426
REMARK  168  A    between atoms: _425  and  _428
REMARK  169  A    between atoms: _428  and  _429
REMARK  170  A    between atoms: _432  and  _434
REMARK  171  A    between atoms: _434  and  _435
REMARK  172  A    between atoms: _434  and  _437
REMARK  173  A    between atoms: _437  and  _438
REMARK  174  A    between atoms: _438  and  _439
REMARK  175  A    between atoms: _444  and  _446
REMARK  176  A    between atoms: _446  and  _447
REMARK  177  A    between atoms: _446  and  _449
REMARK  178  A    between atoms: _449  and  _450
REMARK  179  A    between atoms: _460  and  _462
REMARK  180  A    between atoms: _462  and  _463
REMARK  181  A    between atoms: _462  and  _465
REMARK  182  A    between atoms: _465  and  _466
REMARK  183  A    between atoms: _466  and  _467
REMARK  184  A    between atoms: _469  and  _471
REMARK  185  A    between atoms: _471  and  _472
REMARK  186  A    between atoms: _471  and  _474
REMARK  187  A    between atoms: _474  and  _475
REMARK  188  A    between atoms: _480  and  _482
REMARK  189  A    between atoms: _482  and  _483
REMARK  190  A    between atoms: _485  and  _487
REMARK  191  A    between atoms: _487  and  _488
REMARK  192  A    between atoms: _487  and  _490
REMARK  193  A    between atoms: _490  and  _491
REMARK  194  A    between atoms: _491  and  _814
REMARK  195  A    between atoms: _492  and  _494
REMARK  196  A    between atoms: _494  and  _495
REMARK  197  A    between atoms: _494  and  _497
REMARK  198  A    between atoms: _497  and  _498
REMARK  199  A    between atoms: _498  and  _499
REMARK  200  A    between atoms: _502  and  _504
REMARK  201  A    between atoms: _504  and  _505
REMARK  202  A    between atoms: _504  and  _507
REMARK  203  A    between atoms: _507  and  _508
REMARK  204  A    between atoms: _508  and  _509
REMARK  205  A    between atoms: _514  and  _516
REMARK  206  A    between atoms: _516  and  _517
REMARK  207  A    between atoms: _516  and  _519
REMARK  208  A    between atoms: _519  and  _520
REMARK  209  A    between atoms: _526  and  _528
REMARK  210  A    between atoms: _528  and  _529
REMARK  211  A    between atoms: _532  and  _534
REMARK  212  A    between atoms: _534  and  _535
REMARK  213  A    between atoms: _534  and  _537
REMARK  214  A    between atoms: _537  and  _538
REMARK  215  A    between atoms: _543  and  _544
REMARK  216  A    between atoms: _546  and  _548
REMARK  217  A    between atoms: _548  and  _549
REMARK  218  A    between atoms: _548  and  _551
REMARK  219  A    between atoms: _551  and  _552
REMARK  220  A    between atoms: _557  and  _558
REMARK  221  A    between atoms: _560  and  _562
REMARK  222  A    between atoms: _562  and  _563
REMARK  223  A    between atoms: _562  and  _565
REMARK  224  A    between atoms: _565  and  _566
REMARK  225  A    between atoms: _569  and  _571
REMARK  226  A    between atoms: _571  and  _572
REMARK  227  A    between atoms: _571  and  _574
REMARK  228  A    between atoms: _574  and  _575
REMARK  229  A    between atoms: _578  and  _580
REMARK  230  A    between atoms: _580  and  _581
REMARK  231  A    between atoms: _580  and  _583
REMARK  232  A    between atoms: _583  and  _584
REMARK  233  A    between atoms: _587  and  _589
REMARK  234  A    between atoms: _589  and  _590
REMARK  235  A    between atoms: _589  and  _592
REMARK  236  A    between atoms: _592  and  _593
REMARK  237  A    between atoms: _603  and  _605
REMARK  238  A    between atoms: _605  and  _606
REMARK  239  A    between atoms: _605  and  _608
REMARK  240  A    between atoms: _608  and  _609
REMARK  241  A    between atoms: _612  and  _614
REMARK  242  A    between atoms: _614  and  _615
REMARK  243  A    between atoms: _618  and  _620
REMARK  244  A    between atoms: _620  and  _621
REMARK  245  A    between atoms: _624  and  _626
REMARK  246  A    between atoms: _626  and  _627
REMARK  247  A    between atoms: _626  and  _629
REMARK  248  A    between atoms: _629  and  _630
REMARK  249  A    between atoms: _630  and  _631
REMARK  250  A    between atoms: _636  and  _638
REMARK  251  A    between atoms: _638  and  _639
REMARK  252  A    between atoms: _638  and  _641
REMARK  253  A    between atoms: _641  and  _642
REMARK  254  A    between atoms: _645  and  _647
REMARK  255  A    between atoms: _647  and  _648
REMARK  256  A    between atoms: _647  and  _650
REMARK  257  A    between atoms: _650  and  _651
REMARK  258  A    between atoms: _653  and  _655
REMARK  259  A    between atoms: _655  and  _656
REMARK  260  A    between atoms: _655  and  _658
REMARK  261  A    between atoms: _658  and  _659
REMARK  262  A    between atoms: _659  and  _660
REMARK  263  A    between atoms: _663  and  _665
REMARK  264  A    between atoms: _665  and  _666
REMARK  265  A    between atoms: _665  and  _668
REMARK  266  A    between atoms: _668  and  _669
REMARK  267  A    between atoms: _669  and  _670
REMARK  268  A    between atoms: _675  and  _677
REMARK  269  A    between atoms: _677  and  _678
REMARK  270  A    between atoms: _677  and  _680
REMARK  271  A    between atoms: _680  and  _681
REMARK  272  A    between atoms: _681  and  _682
REMARK  273  A    between atoms: _682  and  _683
REMARK  274  A    between atoms: _683  and  _684
REMARK  275  A    between atoms: _688  and  _690
REMARK  276  A    between atoms: _690  and  _691
REMARK  277  A    between atoms: _690  and  _693
REMARK  278  A    between atoms: _693  and  _694
REMARK  279  A    between atoms: _696  and  _698
REMARK  280  A    between atoms: _698  and  _699
REMARK  281  A    between atoms: _698  and  _701
REMARK  282  A    between atoms: _701  and  _702
REMARK  283  A    between atoms: _707  and  _709
REMARK  284  A    between atoms: _709  and  _710
REMARK  285  A    between atoms: _713  and  _715
REMARK  286  A    between atoms: _715  and  _716
REMARK  287  A    between atoms: _715  and  _718
REMARK  288  A    between atoms: _718  and  _719
REMARK  289  A    between atoms: _721  and  _723
REMARK  290  A    between atoms: _723  and  _724
REMARK  291  A    between atoms: _723  and  _726
REMARK  292  A    between atoms: _726  and  _727
REMARK  293  A    between atoms: _727  and  _728
REMARK  294  A    between atoms: _731  and  _733
REMARK  295  A    between atoms: _733  and  _734
REMARK  296  A    between atoms: _737  and  _739
REMARK  297  A    between atoms: _739  and  _740
REMARK  298  A    between atoms: _739  and  _742
REMARK  299  A    between atoms: _742  and  _743
REMARK  300  A    between atoms: _743  and  _744
REMARK  301  A    between atoms: _747  and  _749
REMARK  302  A    between atoms: _749  and  _750
REMARK  303  A    between atoms: _749  and  _752
REMARK  304  A    between atoms: _752  and  _753
REMARK  305  A    between atoms: _758  and  _760
REMARK  306  A    between atoms: _760  and  _761
REMARK  307  A    between atoms: _760  and  _763
REMARK  308  A    between atoms: _763  and  _764
REMARK  309  A    between atoms: _764  and  _765
REMARK  310  A    between atoms: _770  and  _772
REMARK  311  A    between atoms: _772  and  _773
REMARK  312  A    between atoms: _776  and  _778
REMARK  313  A    between atoms: _778  and  _779
REMARK  314  A    between atoms: _778  and  _781
REMARK  315  A    between atoms: _781  and  _782
REMARK  316  A    between atoms: _787  and  _788
REMARK  317  A    between atoms: _790  and  _792
REMARK  318  A    between atoms: _792  and  _793
REMARK  319  A    between atoms: _792  and  _795
REMARK  320  A    between atoms: _795  and  _796
REMARK  321  A    between atoms: _799  and  _801
REMARK  322  A    between atoms: _801  and  _802
REMARK  323  A    between atoms: _801  and  _804
REMARK  324  A    between atoms: _804  and  _805
REMARK  325  A    between atoms: _808  and  _810
REMARK  326  A    between atoms: _810  and  _811
REMARK  327  A    between atoms: _810  and  _813
REMARK  328  A    between atoms: _813  and  _814
REMARK  329  A    between atoms: _815  and  _817
REMARK  330  A    between atoms: _817  and  _818
REMARK  331  A    between atoms: _817  and  _820
REMARK  332  A    between atoms: _823  and  _825
REMARK  333  A    between atoms: _825  and  _826
REMARK  334  A    between atoms: _825  and  _828
REMARK  335  A    between atoms: _828  and  _829
REMARK  336  A    between atoms: _829  and  _830
REMARK  337  A    between atoms: _833  and  _835
REMARK  338  A    between atoms: _835  and  _836
REMARK  339  A    between atoms: _835  and  _838
REMARK  340  A    between atoms: _838  and  _839
REMARK  341  A    between atoms: _849  and  _851
REMARK  342  A    between atoms: _851  and  _852
REMARK  343  A    between atoms: _851  and  _854
REMARK  344  A    between atoms: _854  and  _855
REMARK  345  A    between atoms: _858  and  _860
REMARK  346  A    between atoms: _860  and  _861
REMARK  347  A    between atoms: _860  and  _863
REMARK  348  A    between atoms: _863  and  _864
REMARK  349  A    between atoms: _864  and  _865
REMARK  350  A    between atoms: _865  and  _866
REMARK  351  A    between atoms: _866  and  _867
REMARK  352  A    between atoms: _871  and  _873
REMARK  353  A    between atoms: _873  and  _874
REMARK  354  A    between atoms: _873  and  _876
REMARK  355  A    between atoms: _876  and  _877
REMARK  356  A    between atoms: _882  and  _883
REMARK                            x       y       z     vdW  Elec       q    Type
REMARK                         _______ _______ _______ _____ _____    ______ ____
ROOT
ATOM      1  O   HOH     1      24.471 -15.230  12.956  0.00  0.00    +0.000 OA
ENDROOT
TORSDOF 0
REMARK  Name = ../refined-set-2016/3bzf/3bzf_pocket.pdb
REMARK  356 active torsions:
REMARK  status: ('A' for Active; 'I' for Inactive)
REMARK    1  A    between atoms: _1  and  _3
REMARK    2  A    between atoms: _3  and  _4
REMARK    3  A    between atoms: _3  and  _6
REMARK    4  A    between atoms: _6  and  _7
REMARK    5  A    between atoms: _10  and  _12
REMARK    6  A    between atoms: _12  and  _13
REMARK    7  A    between atoms: _12  and  _15
REMARK    8  A    between atoms: _15  and  _16
REMARK    9  A    between atoms: _16  and  _17
REMARK   10  A    between atoms: _17  and  _18
REMARK   11  A    between atoms: _18  and  _19
REMARK   12  A    between atoms: _23  and  _25
REMARK   13  A    between atoms: _25  and  _26
REMARK   14  A    between atoms: _25  and  _28
REMARK   15  A    between atoms: _28  and  _29
REMARK   16  A    between atoms: _34  and  _35
REMARK   17  A    between atoms: _37  and  _39
REMARK   18  A    between atoms: _39  and  _40
REMARK   19  A    between atoms: _39  and  _42
REMARK   20  A    between atoms: _42  and  _43
REMARK   21  A    between atoms: _49  and  _51
REMARK   22  A    between atoms: _51  and  _52
REMARK   23  A    between atoms: _51  and  _54
REMARK   24  A    between atoms: _54  and  _55
REMARK   25  A    between atoms: _60  and  _62
REMARK   26  A    between atoms: _62  and  _63
REMARK   27  A    between atoms: _62  and  _65
REMARK   28  A    between atoms: _65  and  _66
REMARK   29  A    between atoms: _72  and  _74
REMARK   30  A    between atoms: _74  and  _75
REMARK   31  A    between atoms: _74  and  _77
REMARK   32  A    between atoms: _77  and  _78
REMARK   33  A    between atoms: _81  and  _83
REMARK   34  A    between atoms: _83  and  _84
REMARK   35  A    between atoms: _83  and  _86
REMARK   36  A    between atoms: _86  and  _87
REMARK   37  A    between atoms: _89  and  _91
REMARK   38  A    between atoms: _91  and  _92
REMARK   39  A    between atoms: _91  and  _94
REMARK   40  A    between atoms: _97  and  _99
REMARK   41  A    between atoms: _99  and  _100
REMARK   42  A    between atoms: _102  and  _104
REMARK   43  A    between atoms: _104  and  _105
REMARK   44  A    between atoms: _104  and  _107
REMARK   45  A    between atoms: _107  and  _108
REMARK   46  A    between atoms: _114  and  _116
REMARK   47  A    between atoms: _116  and  _117
REMARK   48  A    between atoms: _116  and  _119
REMARK   49  A    between atoms: _122  and  _124
REMARK   50  A    between atoms: _124  and  _125
REMARK   51  A    between atoms: _124  and  _127
REMARK   52  A    between atoms: _127  and  _128
REMARK   53  A    between atoms: _128  and  _129
REMARK   54  A    between atoms: _129  and  _130
REMARK   55  A    between atoms: _139  and  _141
REMARK   56  A    between atoms: _141  and  _142
REMARK   57  A    between atoms: _141  and  _144
REMARK   58  A    between atoms: _144  and  _145
REMARK   59  A    between atoms: _151  and  _153
REMARK   60  A    between atoms: _153  and  _154
REMARK   61  A    between atoms: _153  and  _156
REMARK   62  A    between atoms: _156  and  _157
REMARK   63  A    between atoms: _157  and  _158
REMARK   64  A    between atoms: _160  and  _162
REMARK   65  A    between atoms: _162  and  _163
REMARK   66  A    between atoms: _162  and  _165
REMARK   67  A    between atoms: _165  and  _166
REMARK   68  A    between atoms: _171  and  _172
REMARK   69  A    between atoms: _174  and  _176
REMARK   70  A    between atoms: _176  and  _177
REMARK   71  A    between atoms: _176  and  _179
REMARK   72  A    between atoms: _179  and  _180
REMARK   73  A    between atoms: _180  and  _181
REMARK   74  A    between atoms: _181  and  _182
REMARK   75  A    between atoms: _191  and  _193
REMARK   76  A    between atoms: _193  and  _194
REMARK   77  A    between atoms: _193  and  _196
REMARK   78  A    between atoms: _196  and  _197
REMARK   79  A    between atoms: _197  and  _198
REMARK   80  A    between atoms: _201  and  _203
REMARK   81  A    between atoms: _203  and  _204
REMARK   82  A    between atoms: _203  and  _206
REMARK   83  A    between atoms: _206  and  _207
REMARK   84  A    between atoms: _210  and  _212
REMARK   85  A    between atoms: _212  and  _213
REMARK   86  A    between atoms: _212  and  _215
REMARK   87  A    between atoms: _215  and  _216
REMARK   88  A    between atoms: _216  and  _217
REMARK   89  A    between atoms: _217  and  _218
REMARK   90  A    between atoms: _227  and  _229
REMARK   91  A    between atoms: _229  and  _230
REMARK   92  A    between atoms: _229  and  _232
REMARK   93  A    between atoms: _232  and  _233
REMARK   94  A    between atoms: _235  and  _237
REMARK   95  A    between atoms: _237  and  _238
REMARK   96  A    between atoms: _241  and  _243
REMARK   97  A    between atoms: _243  and  _244
REMARK   98  A    between atoms: _243  and  _246
REMARK   99  A    between atoms: _246  and  _247
REMARK  100  A    between atoms: _247  and  _248
REMARK  101  A    between atoms: _248  and  _249
REMARK  102  A    between atoms: _258  and  _260
REMARK  103  A    between atoms: _260  and  _261
REMARK  104  A    between atoms: _260  and  _263
REMARK  105  A    between atoms: _263  and  _264
REMARK  106  A    between atoms: _267  and  _269
REMARK  107  A    between atoms: _269  and  _270
REMARK  108  A    between atoms: _269  and  _272
REMARK  109  A    between atoms: _272  and  _273
REMARK  110  A    between atoms: _276  and  _278
REMARK  111  A    between atoms: _278  and  _279
REMARK  112  A    between atoms: _282  and  _284
REMARK  113  A    between atoms: _284  and  _285
REMARK  114  A    between atoms: _284  and  _287
REMARK  115  A    between atoms: _287  and  _288
REMARK  116  A    between atoms: _288  and  _289
REMARK  117  A    between atoms: _294  and  _296
REMARK  118  A    between atoms: _296  and  _297
REMARK  119  A    between atoms: _296  and  _299
REMARK  120  A    between atoms: _299  and  _300
REMARK  121  A    between atoms: _303  and  _305
REMARK  122  A    between atoms: _305  and  _306
REMARK  123  A    between atoms: _305  and  _308
REMARK  124  A    between atoms: _308  and  _309
REMARK  125  A    between atoms: _315  and  _317
REMARK  126  A    between atoms: _317  and  _318
REMARK  127  A    between atoms: _317  and  _320
REMARK  128  A    between atoms: _320  and  _321
REMARK  129  A    between atoms: _321  and  _322
REMARK  130  A    between atoms: _322  and  _323
REMARK  131  A    between atoms: _332  and  _334
REMARK  132  A    between atoms: _334  and  _335
REMARK  133  A    between atoms: _334  and  _337
REMARK  134  A    between atoms: _340  and  _342
REMARK  135  A    between atoms: _342  and  _343
REMARK  136  A    between atoms: _342  and  _345
REMARK  137  A    between atoms: _345  and  _346
REMARK  138  A    between atoms: _351  and  _353
REMARK  139  A    between atoms: _353  and  _354
REMARK  140  A    between atoms: _353  and  _356
REMARK  141  A    between atoms: _356  and  _357
REMARK  142  A    between atoms: _360  and  _362
REMARK  143  A    between atoms: _362  and  _363
REMARK  144  A    between atoms: _362  and  _365
REMARK  145  A    between atoms: _365  and  _366
REMARK  146  A    between atoms: _366  and  _367
REMARK  147  A    between atoms: _367  and  _368
REMARK  148  A    between atoms: _377  and  _379
REMARK  149  A    between atoms: _379  and  _380
REMARK  150  A    between atoms: _379  and  _382
REMARK  151  A    between atoms: _382  and  _383
REMARK  152  A    between atoms: _386  and  _388
REMARK  153  A    between atoms: _388  and  _389
REMARK  154  A    between atoms: _388  and  _391
REMARK  155  A    between atoms: _391  and  _392
REMARK  156  A    between atoms: _395  and  _397
REMARK  157  A    between atoms: _397  and  _398
REMARK  158  A    between atoms: _397  and  _400
REMARK  159  A    between atoms: _400  and  _401
REMARK  160  A    between atoms: _406  and  _407
REMARK  161  A    between atoms: _409  and  _411
REMARK  162  A    between atoms: _411  and  _412
REMARK  163  A    between atoms: _411  and  _414
REMARK  164  A    between atoms: _414  and  _415
REMARK  165  A    between atoms: _420  and  _421
REMARK  166  A    between atoms: _423  and  _425
REMARK  167  A    between atoms: _425  and  _426
REMARK  168  A    between atoms: _425  and  _428
REMARK  169  A    between atoms: _428  and  _429
REMARK  170  A    between atoms: _432  and  _434
REMARK  171  A    between atoms: _434  and  _435
REMARK  172  A    between atoms: _434  and  _437
REMARK  173  A    between atoms: _437  and  _438
REMARK  174  A    between atoms: _438  and  _439
REMARK  175  A    between atoms: _444  and  _446
REMARK  176  A    between atoms: _446  and  _447
REMARK  177  A    between atoms: _446  and  _449
REMARK  178  A    between atoms: _449  and  _450
REMARK  179  A    between atoms: _460  and  _462
REMARK  180  A    between atoms: _462  and  _463
REMARK  181  A    between atoms: _462  and  _465
REMARK  182  A    between atoms: _465  and  _466
REMARK  183  A    between atoms: _466  and  _467
REMARK  184  A    between atoms: _469  and  _471
REMARK  185  A    between atoms: _471  and  _472
REMARK  186  A    between atoms: _471  and  _474
REMARK  187  A    between atoms: _474  and  _475
REMARK  188  A    between atoms: _480  and  _482
REMARK  189  A    between atoms: _482  and  _483
REMARK  190  A    between atoms: _485  and  _487
REMARK  191  A    between atoms: _487  and  _488
REMARK  192  A    between atoms: _487  and  _490
REMARK  193  A    between atoms: _490  and  _491
REMARK  194  A    between atoms: _491  and  _814
REMARK  195  A    between atoms: _492  and  _494
REMARK  196  A    between atoms: _494  and  _495
REMARK  197  A    between atoms: _494  and  _497
REMARK  198  A    between atoms: _497  and  _498
REMARK  199  A    between atoms: _498  and  _499
REMARK  200  A    between atoms: _502  and  _504
REMARK  201  A    between atoms: _504  and  _505
REMARK  202  A    between atoms: _504  and  _507
REMARK  203  A    between atoms: _507  and  _508
REMARK  204  A    between atoms: _508  and  _509
REMARK  205  A    between atoms: _514  and  _516
REMARK  206  A    between atoms: _516  and  _517
REMARK  207  A    between atoms: _516  and  _519
REMARK  208  A    between atoms: _519  and  _520
REMARK  209  A    between atoms: _526  and  _528
REMARK  210  A    between atoms: _528  and  _529
REMARK  211  A    between atoms: _532  and  _534
REMARK  212  A    between atoms: _534  and  _535
REMARK  213  A    between atoms: _534  and  _537
REMARK  214  A    between atoms: _537  and  _538
REMARK  215  A    between atoms: _543  and  _544
REMARK  216  A    between atoms: _546  and  _548
REMARK  217  A    between atoms: _548  and  _549
REMARK  218  A    between atoms: _548  and  _551
REMARK  219  A    between atoms: _551  and  _552
REMARK  220  A    between atoms: _557  and  _558
REMARK  221  A    between atoms: _560  and  _562
REMARK  222  A    between atoms: _562  and  _563
REMARK  223  A    between atoms: _562  and  _565
REMARK  224  A    between atoms: _565  and  _566
REMARK  225  A    between atoms: _569  and  _571
REMARK  226  A    between atoms: _571  and  _572
REMARK  227  A    between atoms: _571  and  _574
REMARK  228  A    between atoms: _574  and  _575
REMARK  229  A    between atoms: _578  and  _580
REMARK  230  A    between atoms: _580  and  _581
REMARK  231  A    between atoms: _580  and  _583
REMARK  232  A    between atoms: _583  and  _584
REMARK  233  A    between atoms: _587  and  _589
REMARK  234  A    between atoms: _589  and  _590
REMARK  235  A    between atoms: _589  and  _592
REMARK  236  A    between atoms: _592  and  _593
REMARK  237  A    between atoms: _603  and  _605
REMARK  238  A    between atoms: _605  and  _606
REMARK  239  A    between atoms: _605  and  _608
REMARK  240  A    between atoms: _608  and  _609
REMARK  241  A    between atoms: _612  and  _614
REMARK  242  A    between atoms: _614  and  _615
REMARK  243  A    between atoms: _618  and  _620
REMARK  244  A    between atoms: _620  and  _621
REMARK  245  A    between atoms: _624  and  _626
REMARK  246  A    between atoms: _626  and  _627
REMARK  247  A    between atoms: _626  and  _629
REMARK  248  A    between atoms: _629  and  _630
REMARK  249  A    between atoms: _630  and  _631
REMARK  250  A    between atoms: _636  and  _638
REMARK  251  A    between atoms: _638  and  _639
REMARK  252  A    between atoms: _638  and  _641
REMARK  253  A    between atoms: _641  and  _642
REMARK  254  A    between atoms: _645  and  _647
REMARK  255  A    between atoms: _647  and  _648
REMARK  256  A    between atoms: _647  and  _650
REMARK  257  A    between atoms: _650  and  _651
REMARK  258  A    between atoms: _653  and  _655
REMARK  259  A    between atoms: _655  and  _656
REMARK  260  A    between atoms: _655  and  _658
REMARK  261  A    between atoms: _658  and  _659
REMARK  262  A    between atoms: _659  and  _660
REMARK  263  A    between atoms: _663  and  _665
REMARK  264  A    between atoms: _665  and  _666
REMARK  265  A    between atoms: _665  and  _668
REMARK  266  A    between atoms: _668  and  _669
REMARK  267  A    between atoms: _669  and  _670
REMARK  268  A    between atoms: _675  and  _677
REMARK  269  A    between atoms: _677  and  _678
REMARK  270  A    between atoms: _677  and  _680
REMARK  271  A    between atoms: _680  and  _681
REMARK  272  A    between atoms: _681  and  _682
REMARK  273  A    between atoms: _682  and  _683
REMARK  274  A    between atoms: _683  and  _684
REMARK  275  A    between atoms: _688  and  _690
REMARK  276  A    between atoms: _690  and  _691
REMARK  277  A    between atoms: _690  and  _693
REMARK  278  A    between atoms: _693  and  _694
REMARK  279  A    between atoms: _696  and  _698
REMARK  280  A    between atoms: _698  and  _699
REMARK  281  A    between atoms: _698  and  _701
REMARK  282  A    between atoms: _701  and  _702
REMARK  283  A    between atoms: _707  and  _709
REMARK  284  A    between atoms: _709  and  _710
REMARK  285  A    between atoms: _713  and  _715
REMARK  286  A    between atoms: _715  and  _716
REMARK  287  A    between atoms: _715  and  _718
REMARK  288  A    between atoms: _718  and  _719
REMARK  289  A    between atoms: _721  and  _723
REMARK  290  A    between atoms: _723  and  _724
REMARK  291  A    between atoms: _723  and  _726
REMARK  292  A    between atoms: _726  and  _727
REMARK  293  A    between atoms: _727  and  _728
REMARK  294  A    between atoms: _731  and  _733
REMARK  295  A    between atoms: _733  and  _734
REMARK  296  A    between atoms: _737  and  _739
REMARK  297  A    between atoms: _739  and  _740
REMARK  298  A    between atoms: _739  and  _742
REMARK  299  A    between atoms: _742  and  _743
REMARK  300  A    between atoms: _743  and  _744
REMARK  301  A    between atoms: _747  and  _749
REMARK  302  A    between atoms: _749  and  _750
REMARK  303  A    between atoms: _749  and  _752
REMARK  304  A    between atoms: _752  and  _753
REMARK  305  A    between atoms: _758  and  _760
REMARK  306  A    between atoms: _760  and  _761
REMARK  307  A    between atoms: _760  and  _763
REMARK  308  A    between atoms: _763  and  _764
REMARK  309  A    between atoms: _764  and  _765
REMARK  310  A    between atoms: _770  and  _772
REMARK  311  A    between atoms: _772  and  _773
REMARK  312  A    between atoms: _776  and  _778
REMARK  313  A    between atoms: _778  and  _779
REMARK  314  A    between atoms: _778  and  _781
REMARK  315  A    between atoms: _781  and  _782
REMARK  316  A    between atoms: _787  and  _788
REMARK  317  A    between atoms: _790  and  _792
REMARK  318  A    between atoms: _792  and  _793
REMARK  319  A    between atoms: _792  and  _795
REMARK  320  A    between atoms: _795  and  _796
REMARK  321  A    between atoms: _799  and  _801
REMARK  322  A    between atoms: _801  and  _802
REMARK  323  A    between atoms: _801  and  _804
REMARK  324  A    between atoms: _804  and  _805
REMARK  325  A    between atoms: _808  and  _810
REMARK  326  A    between atoms: _810  and  _811
REMARK  327  A    between atoms: _810  and  _813
REMARK  328  A    between atoms: _813  and  _814
REMARK  329  A    between atoms: _815  and  _817
REMARK  330  A    between atoms: _817  and  _818
REMARK  331  A    between atoms: _817  and  _820
REMARK  332  A    between atoms: _823  and  _825
REMARK  333  A    between atoms: _825  and  _826
REMARK  334  A    between atoms: _825  and  _828
REMARK  335  A    between atoms: _828  and  _829
REMARK  336  A    between atoms: _829  and  _830
REMARK  337  A    between atoms: _833  and  _835
REMARK  338  A    between atoms: _835  and  _836
REMARK  339  A    between atoms: _835  and  _838
REMARK  340  A    between atoms: _838  and  _839
REMARK  341  A    between atoms: _849  and  _851
REMARK  342  A    between atoms: _851  and  _852
REMARK  343  A    between atoms: _851  and  _854
REMARK  344  A    between atoms: _854  and  _855
REMARK  345  A    between atoms: _858  and  _860
REMARK  346  A    between atoms: _860  and  _861
REMARK  347  A    between atoms: _860  and  _863
REMARK  348  A    between atoms: _863  and  _864
REMARK  349  A    between atoms: _864  and  _865
REMARK  350  A    between atoms: _865  and  _866
REMARK  351  A    between atoms: _866  and  _867
REMARK  352  A    between atoms: _871  and  _873
REMARK  353  A    between atoms: _873  and  _874
REMARK  354  A    between atoms: _873  and  _876
REMARK  355  A    between atoms: _876  and  _877
REMARK  356  A    between atoms: _882  and  _883
REMARK                            x       y       z     vdW  Elec       q    Type
REMARK                         _______ _______ _______ _____ _____    ______ ____
ROOT
ATOM      1  O   HOH     1       3.595 -18.538  22.972  0.00  0.00    +0.000 OA
ENDROOT
TORSDOF 0
REMARK  Name = ../refined-set-2016/3bzf/3bzf_pocket.pdb
REMARK  356 active torsions:
REMARK  status: ('A' for Active; 'I' for Inactive)
REMARK    1  A    between atoms: _1  and  _3
REMARK    2  A    between atoms: _3  and  _4
REMARK    3  A    between atoms: _3  and  _6
REMARK    4  A    between atoms: _6  and  _7
REMARK    5  A    between atoms: _10  and  _12
REMARK    6  A    between atoms: _12  and  _13
REMARK    7  A    between atoms: _12  and  _15
REMARK    8  A    between atoms: _15  and  _16
REMARK    9  A    between atoms: _16  and  _17
REMARK   10  A    between atoms: _17  and  _18
REMARK   11  A    between atoms: _18  and  _19
REMARK   12  A    between atoms: _23  and  _25
REMARK   13  A    between atoms: _25  and  _26
REMARK   14  A    between atoms: _25  and  _28
REMARK   15  A    between atoms: _28  and  _29
REMARK   16  A    between atoms: _34  and  _35
REMARK   17  A    between atoms: _37  and  _39
REMARK   18  A    between atoms: _39  and  _40
REMARK   19  A    between atoms: _39  and  _42
REMARK   20  A    between atoms: _42  and  _43
REMARK   21  A    between atoms: _49  and  _51
REMARK   22  A    between atoms: _51  and  _52
REMARK   23  A    between atoms: _51  and  _54
REMARK   24  A    between atoms: _54  and  _55
REMARK   25  A    between atoms: _60  and  _62
REMARK   26  A    between atoms: _62  and  _63
REMARK   27  A    between atoms: _62  and  _65
REMARK   28  A    between atoms: _65  and  _66
REMARK   29  A    between atoms: _72  and  _74
REMARK   30  A    between atoms: _74  and  _75
REMARK   31  A    between atoms: _74  and  _77
REMARK   32  A    between atoms: _77  and  _78
REMARK   33  A    between atoms: _81  and  _83
REMARK   34  A    between atoms: _83  and  _84
REMARK   35  A    between atoms: _83  and  _86
REMARK   36  A    between atoms: _86  and  _87
REMARK   37  A    between atoms: _89  and  _91
REMARK   38  A    between atoms: _91  and  _92
REMARK   39  A    between atoms: _91  and  _94
REMARK   40  A    between atoms: _97  and  _99
REMARK   41  A    between atoms: _99  and  _100
REMARK   42  A    between atoms: _102  and  _104
REMARK   43  A    between atoms: _104  and  _105
REMARK   44  A    between atoms: _104  and  _107
REMARK   45  A    between atoms: _107  and  _108
REMARK   46  A    between atoms: _114  and  _116
REMARK   47  A    between atoms: _116  and  _117
REMARK   48  A    between atoms: _116  and  _119
REMARK   49  A    between atoms: _122  and  _124
REMARK   50  A    between atoms: _124  and  _125
REMARK   51  A    between atoms: _124  and  _127
REMARK   52  A    between atoms: _127  and  _128
REMARK   53  A    between atoms: _128  and  _129
REMARK   54  A    between atoms: _129  and  _130
REMARK   55  A    between atoms: _139  and  _141
REMARK   56  A    between atoms: _141  and  _142
REMARK   57  A    between atoms: _141  and  _144
REMARK   58  A    between atoms: _144  and  _145
REMARK   59  A    between atoms: _151  and  _153
REMARK   60  A    between atoms: _153  and  _154
REMARK   61  A    between atoms: _153  and  _156
REMARK   62  A    between atoms: _156  and  _157
REMARK   63  A    between atoms: _157  and  _158
REMARK   64  A    between atoms: _160  and  _162
REMARK   65  A    between atoms: _162  and  _163
REMARK   66  A    between atoms: _162  and  _165
REMARK   67  A    between atoms: _165  and  _166
REMARK   68  A    between atoms: _171  and  _172
REMARK   69  A    between atoms: _174  and  _176
REMARK   70  A    between atoms: _176  and  _177
REMARK   71  A    between atoms: _176  and  _179
REMARK   72  A    between atoms: _179  and  _180
REMARK   73  A    between atoms: _180  and  _181
REMARK   74  A    between atoms: _181  and  _182
REMARK   75  A    between atoms: _191  and  _193
REMARK   76  A    between atoms: _193  and  _194
REMARK   77  A    between atoms: _193  and  _196
REMARK   78  A    between atoms: _196  and  _197
REMARK   79  A    between atoms: _197  and  _198
REMARK   80  A    between atoms: _201  and  _203
REMARK   81  A    between atoms: _203  and  _204
REMARK   82  A    between atoms: _203  and  _206
REMARK   83  A    between atoms: _206  and  _207
REMARK   84  A    between atoms: _210  and  _212
REMARK   85  A    between atoms: _212  and  _213
REMARK   86  A    between atoms: _212  and  _215
REMARK   87  A    between atoms: _215  and  _216
REMARK   88  A    between atoms: _216  and  _217
REMARK   89  A    between atoms: _217  and  _218
REMARK   90  A    between atoms: _227  and  _229
REMARK   91  A    between atoms: _229  and  _230
REMARK   92  A    between atoms: _229  and  _232
REMARK   93  A    between atoms: _232  and  _233
REMARK   94  A    between atoms: _235  and  _237
REMARK   95  A    between atoms: _237  and  _238
REMARK   96  A    between atoms: _241  and  _243
REMARK   97  A    between atoms: _243  and  _244
REMARK   98  A    between atoms: _243  and  _246
REMARK   99  A    between atoms: _246  and  _247
REMARK  100  A    between atoms: _247  and  _248
REMARK  101  A    between atoms: _248  and  _249
REMARK  102  A    between atoms: _258  and  _260
REMARK  103  A    between atoms: _260  and  _261
REMARK  104  A    between atoms: _260  and  _263
REMARK  105  A    between atoms: _263  and  _264
REMARK  106  A    between atoms: _267  and  _269
REMARK  107  A    between atoms: _269  and  _270
REMARK  108  A    between atoms: _269  and  _272
REMARK  109  A    between atoms: _272  and  _273
REMARK  110  A    between atoms: _276  and  _278
REMARK  111  A    between atoms: _278  and  _279
REMARK  112  A    between atoms: _282  and  _284
REMARK  113  A    between atoms: _284  and  _285
REMARK  114  A    between atoms: _284  and  _287
REMARK  115  A    between atoms: _287  and  _288
REMARK  116  A    between atoms: _288  and  _289
REMARK  117  A    between atoms: _294  and  _296
REMARK  118  A    between atoms: _296  and  _297
REMARK  119  A    between atoms: _296  and  _299
REMARK  120  A    between atoms: _299  and  _300
REMARK  121  A    between atoms: _303  and  _305
REMARK  122  A    between atoms: _305  and  _306
REMARK  123  A    between atoms: _305  and  _308
REMARK  124  A    between atoms: _308  and  _309
REMARK  125  A    between atoms: _315  and  _317
REMARK  126  A    between atoms: _317  and  _318
REMARK  127  A    between atoms: _317  and  _320
REMARK  128  A    between atoms: _320  and  _321
REMARK  129  A    between atoms: _321  and  _322
REMARK  130  A    between atoms: _322  and  _323
REMARK  131  A    between atoms: _332  and  _334
REMARK  132  A    between atoms: _334  and  _335
REMARK  133  A    between atoms: _334  and  _337
REMARK  134  A    between atoms: _340  and  _342
REMARK  135  A    between atoms: _342  and  _343
REMARK  136  A    between atoms: _342  and  _345
REMARK  137  A    between atoms: _345  and  _346
REMARK  138  A    between atoms: _351  and  _353
REMARK  139  A    between atoms: _353  and  _354
REMARK  140  A    between atoms: _353  and  _356
REMARK  141  A    between atoms: _356  and  _357
REMARK  142  A    between atoms: _360  and  _362
REMARK  143  A    between atoms: _362  and  _363
REMARK  144  A    between atoms: _362  and  _365
REMARK  145  A    between atoms: _365  and  _366
REMARK  146  A    between atoms: _366  and  _367
REMARK  147  A    between atoms: _367  and  _368
REMARK  148  A    between atoms: _377  and  _379
REMARK  149  A    between atoms: _379  and  _380
REMARK  150  A    between atoms: _379  and  _382
REMARK  151  A    between atoms: _382  and  _383
REMARK  152  A    between atoms: _386  and  _388
REMARK  153  A    between atoms: _388  and  _389
REMARK  154  A    between atoms: _388  and  _391
REMARK  155  A    between atoms: _391  and  _392
REMARK  156  A    between atoms: _395  and  _397
REMARK  157  A    between atoms: _397  and  _398
REMARK  158  A    between atoms: _397  and  _400
REMARK  159  A    between atoms: _400  and  _401
REMARK  160  A    between atoms: _406  and  _407
REMARK  161  A    between atoms: _409  and  _411
REMARK  162  A    between atoms: _411  and  _412
REMARK  163  A    between atoms: _411  and  _414
REMARK  164  A    between atoms: _414  and  _415
REMARK  165  A    between atoms: _420  and  _421
REMARK  166  A    between atoms: _423  and  _425
REMARK  167  A    between atoms: _425  and  _426
REMARK  168  A    between atoms: _425  and  _428
REMARK  169  A    between atoms: _428  and  _429
REMARK  170  A    between atoms: _432  and  _434
REMARK  171  A    between atoms: _434  and  _435
REMARK  172  A    between atoms: _434  and  _437
REMARK  173  A    between atoms: _437  and  _438
REMARK  174  A    between atoms: _438  and  _439
REMARK  175  A    between atoms: _444  and  _446
REMARK  176  A    between atoms: _446  and  _447
REMARK  177  A    between atoms: _446  and  _449
REMARK  178  A    between atoms: _449  and  _450
REMARK  179  A    between atoms: _460  and  _462
REMARK  180  A    between atoms: _462  and  _463
REMARK  181  A    between atoms: _462  and  _465
REMARK  182  A    between atoms: _465  and  _466
REMARK  183  A    between atoms: _466  and  _467
REMARK  184  A    between atoms: _469  and  _471
REMARK  185  A    between atoms: _471  and  _472
REMARK  186  A    between atoms: _471  and  _474
REMARK  187  A    between atoms: _474  and  _475
REMARK  188  A    between atoms: _480  and  _482
REMARK  189  A    between atoms: _482  and  _483
REMARK  190  A    between atoms: _485  and  _487
REMARK  191  A    between atoms: _487  and  _488
REMARK  192  A    between atoms: _487  and  _490
REMARK  193  A    between atoms: _490  and  _491
REMARK  194  A    between atoms: _491  and  _814
REMARK  195  A    between atoms: _492  and  _494
REMARK  196  A    between atoms: _494  and  _495
REMARK  197  A    between atoms: _494  and  _497
REMARK  198  A    between atoms: _497  and  _498
REMARK  199  A    between atoms: _498  and  _499
REMARK  200  A    between atoms: _502  and  _504
REMARK  201  A    between atoms: _504  and  _505
REMARK  202  A    between atoms: _504  and  _507
REMARK  203  A    between atoms: _507  and  _508
REMARK  204  A    between atoms: _508  and  _509
REMARK  205  A    between atoms: _514  and  _516
REMARK  206  A    between atoms: _516  and  _517
REMARK  207  A    between atoms: _516  and  _519
REMARK  208  A    between atoms: _519  and  _520
REMARK  209  A    between atoms: _526  and  _528
REMARK  210  A    between atoms: _528  and  _529
REMARK  211  A    between atoms: _532  and  _534
REMARK  212  A    between atoms: _534  and  _535
REMARK  213  A    between atoms: _534  and  _537
REMARK  214  A    between atoms: _537  and  _538
REMARK  215  A    between atoms: _543  and  _544
REMARK  216  A    between atoms: _546  and  _548
REMARK  217  A    between atoms: _548  and  _549
REMARK  218  A    between atoms: _548  and  _551
REMARK  219  A    between atoms: _551  and  _552
REMARK  220  A    between atoms: _557  and  _558
REMARK  221  A    between atoms: _560  and  _562
REMARK  222  A    between atoms: _562  and  _563
REMARK  223  A    between atoms: _562  and  _565
REMARK  224  A    between atoms: _565  and  _566
REMARK  225  A    between atoms: _569  and  _571
REMARK  226  A    between atoms: _571  and  _572
REMARK  227  A    between atoms: _571  and  _574
REMARK  228  A    between atoms: _574  and  _575
REMARK  229  A    between atoms: _578  and  _580
REMARK  230  A    between atoms: _580  and  _581
REMARK  231  A    between atoms: _580  and  _583
REMARK  232  A    between atoms: _583  and  _584
REMARK  233  A    between atoms: _587  and  _589
REMARK  234  A    between atoms: _589  and  _590
REMARK  235  A    between atoms: _589  and  _592
REMARK  236  A    between atoms: _592  and  _593
REMARK  237  A    between atoms: _603  and  _605
REMARK  238  A    between atoms: _605  and  _606
REMARK  239  A    between atoms: _605  and  _608
REMARK  240  A    between atoms: _608  and  _609
REMARK  241  A    between atoms: _612  and  _614
REMARK  242  A    between atoms: _614  and  _615
REMARK  243  A    between atoms: _618  and  _620
REMARK  244  A    between atoms: _620  and  _621
REMARK  245  A    between atoms: _624  and  _626
REMARK  246  A    between atoms: _626  and  _627
REMARK  247  A    between atoms: _626  and  _629
REMARK  248  A    between atoms: _629  and  _630
REMARK  249  A    between atoms: _630  and  _631
REMARK  250  A    between atoms: _636  and  _638
REMARK  251  A    between atoms: _638  and  _639
REMARK  252  A    between atoms: _638  and  _641
REMARK  253  A    between atoms: _641  and  _642
REMARK  254  A    between atoms: _645  and  _647
REMARK  255  A    between atoms: _647  and  _648
REMARK  256  A    between atoms: _647  and  _650
REMARK  257  A    between atoms: _650  and  _651
REMARK  258  A    between atoms: _653  and  _655
REMARK  259  A    between atoms: _655  and  _656
REMARK  260  A    between atoms: _655  and  _658
REMARK  261  A    between atoms: _658  and  _659
REMARK  262  A    between atoms: _659  and  _660
REMARK  263  A    between atoms: _663  and  _665
REMARK  264  A    between atoms: _665  and  _666
REMARK  265  A    between atoms: _665  and  _668
REMARK  266  A    between atoms: _668  and  _669
REMARK  267  A    between atoms: _669  and  _670
REMARK  268  A    between atoms: _675  and  _677
REMARK  269  A    between atoms: _677  and  _678
REMARK  270  A    between atoms: _677  and  _680
REMARK  271  A    between atoms: _680  and  _681
REMARK  272  A    between atoms: _681  and  _682
REMARK  273  A    between atoms: _682  and  _683
REMARK  274  A    between atoms: _683  and  _684
REMARK  275  A    between atoms: _688  and  _690
REMARK  276  A    between atoms: _690  and  _691
REMARK  277  A    between atoms: _690  and  _693
REMARK  278  A    between atoms: _693  and  _694
REMARK  279  A    between atoms: _696  and  _698
REMARK  280  A    between atoms: _698  and  _699
REMARK  281  A    between atoms: _698  and  _701
REMARK  282  A    between atoms: _701  and  _702
REMARK  283  A    between atoms: _707  and  _709
REMARK  284  A    between atoms: _709  and  _710
REMARK  285  A    between atoms: _713  and  _715
REMARK  286  A    between atoms: _715  and  _716
REMARK  287  A    between atoms: _715  and  _718
REMARK  288  A    between atoms: _718  and  _719
REMARK  289  A    between atoms: _721  and  _723
REMARK  290  A    between atoms: _723  and  _724
REMARK  291  A    between atoms: _723  and  _726
REMARK  292  A    between atoms: _726  and  _727
REMARK  293  A    between atoms: _727  and  _728
REMARK  294  A    between atoms: _731  and  _733
REMARK  295  A    between atoms: _733  and  _734
REMARK  296  A    between atoms: _737  and  _739
REMARK  297  A    between atoms: _739  and  _740
REMARK  298  A    between atoms: _739  and  _742
REMARK  299  A    between atoms: _742  and  _743
REMARK  300  A    between atoms: _743  and  _744
REMARK  301  A    between atoms: _747  and  _749
REMARK  302  A    between atoms: _749  and  _750
REMARK  303  A    between atoms: _749  and  _752
REMARK  304  A    between atoms: _752  and  _753
REMARK  305  A    between atoms: _758  and  _760
REMARK  306  A    between atoms: _760  and  _761
REMARK  307  A    between atoms: _760  and  _763
REMARK  308  A    between atoms: _763  and  _764
REMARK  309  A    between atoms: _764  and  _765
REMARK  310  A    between atoms: _770  and  _772
REMARK  311  A    between atoms: _772  and  _773
REMARK  312  A    between atoms: _776  and  _778
REMARK  313  A    between atoms: _778  and  _779
REMARK  314  A    between atoms: _778  and  _781
REMARK  315  A    between atoms: _781  and  _782
REMARK  316  A    between atoms: _787  and  _788
REMARK  317  A    between atoms: _790  and  _792
REMARK  318  A    between atoms: _792  and  _793
REMARK  319  A    between atoms: _792  and  _795
REMARK  320  A    between atoms: _795  and  _796
REMARK  321  A    between atoms: _799  and  _801
REMARK  322  A    between atoms: _801  and  _802
REMARK  323  A    between atoms: _801  and  _804
REMARK  324  A    between atoms: _804  and  _805
REMARK  325  A    between atoms: _808  and  _810
REMARK  326  A    between atoms: _810  and  _811
REMARK  327  A    between atoms: _810  and  _813
REMARK  328  A    between atoms: _813  and  _814
REMARK  329  A    between atoms: _815  and  _817
REMARK  330  A    between atoms: _817  and  _818
REMARK  331  A    between atoms: _817  and  _820
REMARK  332  A    between atoms: _823  and  _825
REMARK  333  A    between atoms: _825  and  _826
REMARK  334  A    between atoms: _825  and  _828
REMARK  335  A    between atoms: _828  and  _829
REMARK  336  A    between atoms: _829  and  _830
REMARK  337  A    between atoms: _833  and  _835
REMARK  338  A    between atoms: _835  and  _836
REMARK  339  A    between atoms: _835  and  _838
REMARK  340  A    between atoms: _838  and  _839
REMARK  341  A    between atoms: _849  and  _851
REMARK  342  A    between atoms: _851  and  _852
REMARK  343  A    between atoms: _851  and  _854
REMARK  344  A    between atoms: _854  and  _855
REMARK  345  A    between atoms: _858  and  _860
REMARK  346  A    between atoms: _860  and  _861
REMARK  347  A    between atoms: _860  and  _863
REMARK  348  A    between atoms: _863  and  _864
REMARK  349  A    between atoms: _864  and  _865
REMARK  350  A    between atoms: _865  and  _866
REMARK  351  A    between atoms: _866  and  _867
REMARK  352  A    between atoms: _871  and  _873
REMARK  353  A    between atoms: _873  and  _874
REMARK  354  A    between atoms: _873  and  _876
REMARK  355  A    between atoms: _876  and  _877
REMARK  356  A    between atoms: _882  and  _883
REMARK                            x       y       z     vdW  Elec       q    Type
REMARK                         _______ _______ _______ _____ _____    ______ ____
ROOT
ATOM      1  O   HOH     1      16.212 -15.103  27.707  0.00  0.00    +0.000 OA
ENDROOT
TORSDOF 0
REMARK  Name = ../refined-set-2016/3bzf/3bzf_pocket.pdb
REMARK  356 active torsions:
REMARK  status: ('A' for Active; 'I' for Inactive)
REMARK    1  A    between atoms: _1  and  _3
REMARK    2  A    between atoms: _3  and  _4
REMARK    3  A    between atoms: _3  and  _6
REMARK    4  A    between atoms: _6  and  _7
REMARK    5  A    between atoms: _10  and  _12
REMARK    6  A    between atoms: _12  and  _13
REMARK    7  A    between atoms: _12  and  _15
REMARK    8  A    between atoms: _15  and  _16
REMARK    9  A    between atoms: _16  and  _17
REMARK   10  A    between atoms: _17  and  _18
REMARK   11  A    between atoms: _18  and  _19
REMARK   12  A    between atoms: _23  and  _25
REMARK   13  A    between atoms: _25  and  _26
REMARK   14  A    between atoms: _25  and  _28
REMARK   15  A    between atoms: _28  and  _29
REMARK   16  A    between atoms: _34  and  _35
REMARK   17  A    between atoms: _37  and  _39
REMARK   18  A    between atoms: _39  and  _40
REMARK   19  A    between atoms: _39  and  _42
REMARK   20  A    between atoms: _42  and  _43
REMARK   21  A    between atoms: _49  and  _51
REMARK   22  A    between atoms: _51  and  _52
REMARK   23  A    between atoms: _51  and  _54
REMARK   24  A    between atoms: _54  and  _55
REMARK   25  A    between atoms: _60  and  _62
REMARK   26  A    between atoms: _62  and  _63
REMARK   27  A    between atoms: _62  and  _65
REMARK   28  A    between atoms: _65  and  _66
REMARK   29  A    between atoms: _72  and  _74
REMARK   30  A    between atoms: _74  and  _75
REMARK   31  A    between atoms: _74  and  _77
REMARK   32  A    between atoms: _77  and  _78
REMARK   33  A    between atoms: _81  and  _83
REMARK   34  A    between atoms: _83  and  _84
REMARK   35  A    between atoms: _83  and  _86
REMARK   36  A    between atoms: _86  and  _87
REMARK   37  A    between atoms: _89  and  _91
REMARK   38  A    between atoms: _91  and  _92
REMARK   39  A    between atoms: _91  and  _94
REMARK   40  A    between atoms: _97  and  _99
REMARK   41  A    between atoms: _99  and  _100
REMARK   42  A    between atoms: _102  and  _104
REMARK   43  A    between atoms: _104  and  _105
REMARK   44  A    between atoms: _104  and  _107
REMARK   45  A    between atoms: _107  and  _108
REMARK   46  A    between atoms: _114  and  _116
REMARK   47  A    between atoms: _116  and  _117
REMARK   48  A    between atoms: _116  and  _119
REMARK   49  A    between atoms: _122  and  _124
REMARK   50  A    between atoms: _124  and  _125
REMARK   51  A    between atoms: _124  and  _127
REMARK   52  A    between atoms: _127  and  _128
REMARK   53  A    between atoms: _128  and  _129
REMARK   54  A    between atoms: _129  and  _130
REMARK   55  A    between atoms: _139  and  _141
REMARK   56  A    between atoms: _141  and  _142
REMARK   57  A    between atoms: _141  and  _144
REMARK   58  A    between atoms: _144  and  _145
REMARK   59  A    between atoms: _151  and  _153
REMARK   60  A    between atoms: _153  and  _154
REMARK   61  A    between atoms: _153  and  _156
REMARK   62  A    between atoms: _156  and  _157
REMARK   63  A    between atoms: _157  and  _158
REMARK   64  A    between atoms: _160  and  _162
REMARK   65  A    between atoms: _162  and  _163
REMARK   66  A    between atoms: _162  and  _165
REMARK   67  A    between atoms: _165  and  _166
REMARK   68  A    between atoms: _171  and  _172
REMARK   69  A    between atoms: _174  and  _176
REMARK   70  A    between atoms: _176  and  _177
REMARK   71  A    between atoms: _176  and  _179
REMARK   72  A    between atoms: _179  and  _180
REMARK   73  A    between atoms: _180  and  _181
REMARK   74  A    between atoms: _181  and  _182
REMARK   75  A    between atoms: _191  and  _193
REMARK   76  A    between atoms: _193  and  _194
REMARK   77  A    between atoms: _193  and  _196
REMARK   78  A    between atoms: _196  and  _197
REMARK   79  A    between atoms: _197  and  _198
REMARK   80  A    between atoms: _201  and  _203
REMARK   81  A    between atoms: _203  and  _204
REMARK   82  A    between atoms: _203  and  _206
REMARK   83  A    between atoms: _206  and  _207
REMARK   84  A    between atoms: _210  and  _212
REMARK   85  A    between atoms: _212  and  _213
REMARK   86  A    between atoms: _212  and  _215
REMARK   87  A    between atoms: _215  and  _216
REMARK   88  A    between atoms: _216  and  _217
REMARK   89  A    between atoms: _217  and  _218
REMARK   90  A    between atoms: _227  and  _229
REMARK   91  A    between atoms: _229  and  _230
REMARK   92  A    between atoms: _229  and  _232
REMARK   93  A    between atoms: _232  and  _233
REMARK   94  A    between atoms: _235  and  _237
REMARK   95  A    between atoms: _237  and  _238
REMARK   96  A    between atoms: _241  and  _243
REMARK   97  A    between atoms: _243  and  _244
REMARK   98  A    between atoms: _243  and  _246
REMARK   99  A    between atoms: _246  and  _247
REMARK  100  A    between atoms: _247  and  _248
REMARK  101  A    between atoms: _248  and  _249
REMARK  102  A    between atoms: _258  and  _260
REMARK  103  A    between atoms: _260  and  _261
REMARK  104  A    between atoms: _260  and  _263
REMARK  105  A    between atoms: _263  and  _264
REMARK  106  A    between atoms: _267  and  _269
REMARK  107  A    between atoms: _269  and  _270
REMARK  108  A    between atoms: _269  and  _272
REMARK  109  A    between atoms: _272  and  _273
REMARK  110  A    between atoms: _276  and  _278
REMARK  111  A    between atoms: _278  and  _279
REMARK  112  A    between atoms: _282  and  _284
REMARK  113  A    between atoms: _284  and  _285
REMARK  114  A    between atoms: _284  and  _287
REMARK  115  A    between atoms: _287  and  _288
REMARK  116  A    between atoms: _288  and  _289
REMARK  117  A    between atoms: _294  and  _296
REMARK  118  A    between atoms: _296  and  _297
REMARK  119  A    between atoms: _296  and  _299
REMARK  120  A    between atoms: _299  and  _300
REMARK  121  A    between atoms: _303  and  _305
REMARK  122  A    between atoms: _305  and  _306
REMARK  123  A    between atoms: _305  and  _308
REMARK  124  A    between atoms: _308  and  _309
REMARK  125  A    between atoms: _315  and  _317
REMARK  126  A    between atoms: _317  and  _318
REMARK  127  A    between atoms: _317  and  _320
REMARK  128  A    between atoms: _320  and  _321
REMARK  129  A    between atoms: _321  and  _322
REMARK  130  A    between atoms: _322  and  _323
REMARK  131  A    between atoms: _332  and  _334
REMARK  132  A    between atoms: _334  and  _335
REMARK  133  A    between atoms: _334  and  _337
REMARK  134  A    between atoms: _340  and  _342
REMARK  135  A    between atoms: _342  and  _343
REMARK  136  A    between atoms: _342  and  _345
REMARK  137  A    between atoms: _345  and  _346
REMARK  138  A    between atoms: _351  and  _353
REMARK  139  A    between atoms: _353  and  _354
REMARK  140  A    between atoms: _353  and  _356
REMARK  141  A    between atoms: _356  and  _357
REMARK  142  A    between atoms: _360  and  _362
REMARK  143  A    between atoms: _362  and  _363
REMARK  144  A    between atoms: _362  and  _365
REMARK  145  A    between atoms: _365  and  _366
REMARK  146  A    between atoms: _366  and  _367
REMARK  147  A    between atoms: _367  and  _368
REMARK  148  A    between atoms: _377  and  _379
REMARK  149  A    between atoms: _379  and  _380
REMARK  150  A    between atoms: _379  and  _382
REMARK  151  A    between atoms: _382  and  _383
REMARK  152  A    between atoms: _386  and  _388
REMARK  153  A    between atoms: _388  and  _389
REMARK  154  A    between atoms: _388  and  _391
REMARK  155  A    between atoms: _391  and  _392
REMARK  156  A    between atoms: _395  and  _397
REMARK  157  A    between atoms: _397  and  _398
REMARK  158  A    between atoms: _397  and  _400
REMARK  159  A    between atoms: _400  and  _401
REMARK  160  A    between atoms: _406  and  _407
REMARK  161  A    between atoms: _409  and  _411
REMARK  162  A    between atoms: _411  and  _412
REMARK  163  A    between atoms: _411  and  _414
REMARK  164  A    between atoms: _414  and  _415
REMARK  165  A    between atoms: _420  and  _421
REMARK  166  A    between atoms: _423  and  _425
REMARK  167  A    between atoms: _425  and  _426
REMARK  168  A    between atoms: _425  and  _428
REMARK  169  A    between atoms: _428  and  _429
REMARK  170  A    between atoms: _432  and  _434
REMARK  171  A    between atoms: _434  and  _435
REMARK  172  A    between atoms: _434  and  _437
REMARK  173  A    between atoms: _437  and  _438
REMARK  174  A    between atoms: _438  and  _439
REMARK  175  A    between atoms: _444  and  _446
REMARK  176  A    between atoms: _446  and  _447
REMARK  177  A    between atoms: _446  and  _449
REMARK  178  A    between atoms: _449  and  _450
REMARK  179  A    between atoms: _460  and  _462
REMARK  180  A    between atoms: _462  and  _463
REMARK  181  A    between atoms: _462  and  _465
REMARK  182  A    between atoms: _465  and  _466
REMARK  183  A    between atoms: _466  and  _467
REMARK  184  A    between atoms: _469  and  _471
REMARK  185  A    between atoms: _471  and  _472
REMARK  186  A    between atoms: _471  and  _474
REMARK  187  A    between atoms: _474  and  _475
REMARK  188  A    between atoms: _480  and  _482
REMARK  189  A    between atoms: _482  and  _483
REMARK  190  A    between atoms: _485  and  _487
REMARK  191  A    between atoms: _487  and  _488
REMARK  192  A    between atoms: _487  and  _490
REMARK  193  A    between atoms: _490  and  _491
REMARK  194  A    between atoms: _491  and  _814
REMARK  195  A    between atoms: _492  and  _494
REMARK  196  A    between atoms: _494  and  _495
REMARK  197  A    between atoms: _494  and  _497
REMARK  198  A    between atoms: _497  and  _498
REMARK  199  A    between atoms: _498  and  _499
REMARK  200  A    between atoms: _502  and  _504
REMARK  201  A    between atoms: _504  and  _505
REMARK  202  A    between atoms: _504  and  _507
REMARK  203  A    between atoms: _507  and  _508
REMARK  204  A    between atoms: _508  and  _509
REMARK  205  A    between atoms: _514  and  _516
REMARK  206  A    between atoms: _516  and  _517
REMARK  207  A    between atoms: _516  and  _519
REMARK  208  A    between atoms: _519  and  _520
REMARK  209  A    between atoms: _526  and  _528
REMARK  210  A    between atoms: _528  and  _529
REMARK  211  A    between atoms: _532  and  _534
REMARK  212  A    between atoms: _534  and  _535
REMARK  213  A    between atoms: _534  and  _537
REMARK  214  A    between atoms: _537  and  _538
REMARK  215  A    between atoms: _543  and  _544
REMARK  216  A    between atoms: _546  and  _548
REMARK  217  A    between atoms: _548  and  _549
REMARK  218  A    between atoms: _548  and  _551
REMARK  219  A    between atoms: _551  and  _552
REMARK  220  A    between atoms: _557  and  _558
REMARK  221  A    between atoms: _560  and  _562
REMARK  222  A    between atoms: _562  and  _563
REMARK  223  A    between atoms: _562  and  _565
REMARK  224  A    between atoms: _565  and  _566
REMARK  225  A    between atoms: _569  and  _571
REMARK  226  A    between atoms: _571  and  _572
REMARK  227  A    between atoms: _571  and  _574
REMARK  228  A    between atoms: _574  and  _575
REMARK  229  A    between atoms: _578  and  _580
REMARK  230  A    between atoms: _580  and  _581
REMARK  231  A    between atoms: _580  and  _583
REMARK  232  A    between atoms: _583  and  _584
REMARK  233  A    between atoms: _587  and  _589
REMARK  234  A    between atoms: _589  and  _590
REMARK  235  A    between atoms: _589  and  _592
REMARK  236  A    between atoms: _592  and  _593
REMARK  237  A    between atoms: _603  and  _605
REMARK  238  A    between atoms: _605  and  _606
REMARK  239  A    between atoms: _605  and  _608
REMARK  240  A    between atoms: _608  and  _609
REMARK  241  A    between atoms: _612  and  _614
REMARK  242  A    between atoms: _614  and  _615
REMARK  243  A    between atoms: _618  and  _620
REMARK  244  A    between atoms: _620  and  _621
REMARK  245  A    between atoms: _624  and  _626
REMARK  246  A    between atoms: _626  and  _627
REMARK  247  A    between atoms: _626  and  _629
REMARK  248  A    between atoms: _629  and  _630
REMARK  249  A    between atoms: _630  and  _631
REMARK  250  A    between atoms: _636  and  _638
REMARK  251  A    between atoms: _638  and  _639
REMARK  252  A    between atoms: _638  and  _641
REMARK  253  A    between atoms: _641  and  _642
REMARK  254  A    between atoms: _645  and  _647
REMARK  255  A    between atoms: _647  and  _648
REMARK  256  A    between atoms: _647  and  _650
REMARK  257  A    between atoms: _650  and  _651
REMARK  258  A    between atoms: _653  and  _655
REMARK  259  A    between atoms: _655  and  _656
REMARK  260  A    between atoms: _655  and  _658
REMARK  261  A    between atoms: _658  and  _659
REMARK  262  A    between atoms: _659  and  _660
REMARK  263  A    between atoms: _663  and  _665
REMARK  264  A    between atoms: _665  and  _666
REMARK  265  A    between atoms: _665  and  _668
REMARK  266  A    between atoms: _668  and  _669
REMARK  267  A    between atoms: _669  and  _670
REMARK  268  A    between atoms: _675  and  _677
REMARK  269  A    between atoms: _677  and  _678
REMARK  270  A    between atoms: _677  and  _680
REMARK  271  A    between atoms: _680  and  _681
REMARK  272  A    between atoms: _681  and  _682
REMARK  273  A    between atoms: _682  and  _683
REMARK  274  A    between atoms: _683  and  _684
REMARK  275  A    between atoms: _688  and  _690
REMARK  276  A    between atoms: _690  and  _691
REMARK  277  A    between atoms: _690  and  _693
REMARK  278  A    between atoms: _693  and  _694
REMARK  279  A    between atoms: _696  and  _698
REMARK  280  A    between atoms: _698  and  _699
REMARK  281  A    between atoms: _698  and  _701
REMARK  282  A    between atoms: _701  and  _702
REMARK  283  A    between atoms: _707  and  _709
REMARK  284  A    between atoms: _709  and  _710
REMARK  285  A    between atoms: _713  and  _715
REMARK  286  A    between atoms: _715  and  _716
REMARK  287  A    between atoms: _715  and  _718
REMARK  288  A    between atoms: _718  and  _719
REMARK  289  A    between atoms: _721  and  _723
REMARK  290  A    between atoms: _723  and  _724
REMARK  291  A    between atoms: _723  and  _726
REMARK  292  A    between atoms: _726  and  _727
REMARK  293  A    between atoms: _727  and  _728
REMARK  294  A    between atoms: _731  and  _733
REMARK  295  A    between atoms: _733  and  _734
REMARK  296  A    between atoms: _737  and  _739
REMARK  297  A    between atoms: _739  and  _740
REMARK  298  A    between atoms: _739  and  _742
REMARK  299  A    between atoms: _742  and  _743
REMARK  300  A    between atoms: _743  and  _744
REMARK  301  A    between atoms: _747  and  _749
REMARK  302  A    between atoms: _749  and  _750
REMARK  303  A    between atoms: _749  and  _752
REMARK  304  A    between atoms: _752  and  _753
REMARK  305  A    between atoms: _758  and  _760
REMARK  306  A    between atoms: _760  and  _761
REMARK  307  A    between atoms: _760  and  _763
REMARK  308  A    between atoms: _763  and  _764
REMARK  309  A    between atoms: _764  and  _765
REMARK  310  A    between atoms: _770  and  _772
REMARK  311  A    between atoms: _772  and  _773
REMARK  312  A    between atoms: _776  and  _778
REMARK  313  A    between atoms: _778  and  _779
REMARK  314  A    between atoms: _778  and  _781
REMARK  315  A    between atoms: _781  and  _782
REMARK  316  A    between atoms: _787  and  _788
REMARK  317  A    between atoms: _790  and  _792
REMARK  318  A    between atoms: _792  and  _793
REMARK  319  A    between atoms: _792  and  _795
REMARK  320  A    between atoms: _795  and  _796
REMARK  321  A    between atoms: _799  and  _801
REMARK  322  A    between atoms: _801  and  _802
REMARK  323  A    between atoms: _801  and  _804
REMARK  324  A    between atoms: _804  and  _805
REMARK  325  A    between atoms: _808  and  _810
REMARK  326  A    between atoms: _810  and  _811
REMARK  327  A    between atoms: _810  and  _813
REMARK  328  A    between atoms: _813  and  _814
REMARK  329  A    between atoms: _815  and  _817
REMARK  330  A    between atoms: _817  and  _818
REMARK  331  A    between atoms: _817  and  _820
REMARK  332  A    between atoms: _823  and  _825
REMARK  333  A    between atoms: _825  and  _826
REMARK  334  A    between atoms: _825  and  _828
REMARK  335  A    between atoms: _828  and  _829
REMARK  336  A    between atoms: _829  and  _830
REMARK  337  A    between atoms: _833  and  _835
REMARK  338  A    between atoms: _835  and  _836
REMARK  339  A    between atoms: _835  and  _838
REMARK  340  A    between atoms: _838  and  _839
REMARK  341  A    between atoms: _849  and  _851
REMARK  342  A    between atoms: _851  and  _852
REMARK  343  A    between atoms: _851  and  _854
REMARK  344  A    between atoms: _854  and  _855
REMARK  345  A    between atoms: _858  and  _860
REMARK  346  A    between atoms: _860  and  _861
REMARK  347  A    between atoms: _860  and  _863
REMARK  348  A    between atoms: _863  and  _864
REMARK  349  A    between atoms: _864  and  _865
REMARK  350  A    between atoms: _865  and  _866
REMARK  351  A    between atoms: _866  and  _867
REMARK  352  A    between atoms: _871  and  _873
REMARK  353  A    between atoms: _873  and  _874
REMARK  354  A    between atoms: _873  and  _876
REMARK  355  A    between atoms: _876  and  _877
REMARK  356  A    between atoms: _882  and  _883
REMARK                            x       y       z     vdW  Elec       q    Type
REMARK                         _______ _______ _______ _____ _____    ______ ____
ROOT
ATOM      1  O   HOH     1      20.711 -12.524  18.515  0.00  0.00    +0.000 OA
ENDROOT
TORSDOF 0
REMARK  Name = ../refined-set-2016/3bzf/3bzf_pocket.pdb
REMARK  356 active torsions:
REMARK  status: ('A' for Active; 'I' for Inactive)
REMARK    1  A    between atoms: _1  and  _3
REMARK    2  A    between atoms: _3  and  _4
REMARK    3  A    between atoms: _3  and  _6
REMARK    4  A    between atoms: _6  and  _7
REMARK    5  A    between atoms: _10  and  _12
REMARK    6  A    between atoms: _12  and  _13
REMARK    7  A    between atoms: _12  and  _15
REMARK    8  A    between atoms: _15  and  _16
REMARK    9  A    between atoms: _16  and  _17
REMARK   10  A    between atoms: _17  and  _18
REMARK   11  A    between atoms: _18  and  _19
REMARK   12  A    between atoms: _23  and  _25
REMARK   13  A    between atoms: _25  and  _26
REMARK   14  A    between atoms: _25  and  _28
REMARK   15  A    between atoms: _28  and  _29
REMARK   16  A    between atoms: _34  and  _35
REMARK   17  A    between atoms: _37  and  _39
REMARK   18  A    between atoms: _39  and  _40
REMARK   19  A    between atoms: _39  and  _42
REMARK   20  A    between atoms: _42  and  _43
REMARK   21  A    between atoms: _49  and  _51
REMARK   22  A    between atoms: _51  and  _52
REMARK   23  A    between atoms: _51  and  _54
REMARK   24  A    between atoms: _54  and  _55
REMARK   25  A    between atoms: _60  and  _62
REMARK   26  A    between atoms: _62  and  _63
REMARK   27  A    between atoms: _62  and  _65
REMARK   28  A    between atoms: _65  and  _66
REMARK   29  A    between atoms: _72  and  _74
REMARK   30  A    between atoms: _74  and  _75
REMARK   31  A    between atoms: _74  and  _77
REMARK   32  A    between atoms: _77  and  _78
REMARK   33  A    between atoms: _81  and  _83
REMARK   34  A    between atoms: _83  and  _84
REMARK   35  A    between atoms: _83  and  _86
REMARK   36  A    between atoms: _86  and  _87
REMARK   37  A    between atoms: _89  and  _91
REMARK   38  A    between atoms: _91  and  _92
REMARK   39  A    between atoms: _91  and  _94
REMARK   40  A    between atoms: _97  and  _99
REMARK   41  A    between atoms: _99  and  _100
REMARK   42  A    between atoms: _102  and  _104
REMARK   43  A    between atoms: _104  and  _105
REMARK   44  A    between atoms: _104  and  _107
REMARK   45  A    between atoms: _107  and  _108
REMARK   46  A    between atoms: _114  and  _116
REMARK   47  A    between atoms: _116  and  _117
REMARK   48  A    between atoms: _116  and  _119
REMARK   49  A    between atoms: _122  and  _124
REMARK   50  A    between atoms: _124  and  _125
REMARK   51  A    between atoms: _124  and  _127
REMARK   52  A    between atoms: _127  and  _128
REMARK   53  A    between atoms: _128  and  _129
REMARK   54  A    between atoms: _129  and  _130
REMARK   55  A    between atoms: _139  and  _141
REMARK   56  A    between atoms: _141  and  _142
REMARK   57  A    between atoms: _141  and  _144
REMARK   58  A    between atoms: _144  and  _145
REMARK   59  A    between atoms: _151  and  _153
REMARK   60  A    between atoms: _153  and  _154
REMARK   61  A    between atoms: _153  and  _156
REMARK   62  A    between atoms: _156  and  _157
REMARK   63  A    between atoms: _157  and  _158
REMARK   64  A    between atoms: _160  and  _162
REMARK   65  A    between atoms: _162  and  _163
REMARK   66  A    between atoms: _162  and  _165
REMARK   67  A    between atoms: _165  and  _166
REMARK   68  A    between atoms: _171  and  _172
REMARK   69  A    between atoms: _174  and  _176
REMARK   70  A    between atoms: _176  and  _177
REMARK   71  A    between atoms: _176  and  _179
REMARK   72  A    between atoms: _179  and  _180
REMARK   73  A    between atoms: _180  and  _181
REMARK   74  A    between atoms: _181  and  _182
REMARK   75  A    between atoms: _191  and  _193
REMARK   76  A    between atoms: _193  and  _194
REMARK   77  A    between atoms: _193  and  _196
REMARK   78  A    between atoms: _196  and  _197
REMARK   79  A    between atoms: _197  and  _198
REMARK   80  A    between atoms: _201  and  _203
REMARK   81  A    between atoms: _203  and  _204
REMARK   82  A    between atoms: _203  and  _206
REMARK   83  A    between atoms: _206  and  _207
REMARK   84  A    between atoms: _210  and  _212
REMARK   85  A    between atoms: _212  and  _213
REMARK   86  A    between atoms: _212  and  _215
REMARK   87  A    between atoms: _215  and  _216
REMARK   88  A    between atoms: _216  and  _217
REMARK   89  A    between atoms: _217  and  _218
REMARK   90  A    between atoms: _227  and  _229
REMARK   91  A    between atoms: _229  and  _230
REMARK   92  A    between atoms: _229  and  _232
REMARK   93  A    between atoms: _232  and  _233
REMARK   94  A    between atoms: _235  and  _237
REMARK   95  A    between atoms: _237  and  _238
REMARK   96  A    between atoms: _241  and  _243
REMARK   97  A    between atoms: _243  and  _244
REMARK   98  A    between atoms: _243  and  _246
REMARK   99  A    between atoms: _246  and  _247
REMARK  100  A    between atoms: _247  and  _248
REMARK  101  A    between atoms: _248  and  _249
REMARK  102  A    between atoms: _258  and  _260
REMARK  103  A    between atoms: _260  and  _261
REMARK  104  A    between atoms: _260  and  _263
REMARK  105  A    between atoms: _263  and  _264
REMARK  106  A    between atoms: _267  and  _269
REMARK  107  A    between atoms: _269  and  _270
REMARK  108  A    between atoms: _269  and  _272
REMARK  109  A    between atoms: _272  and  _273
REMARK  110  A    between atoms: _276  and  _278
REMARK  111  A    between atoms: _278  and  _279
REMARK  112  A    between atoms: _282  and  _284
REMARK  113  A    between atoms: _284  and  _285
REMARK  114  A    between atoms: _284  and  _287
REMARK  115  A    between atoms: _287  and  _288
REMARK  116  A    between atoms: _288  and  _289
REMARK  117  A    between atoms: _294  and  _296
REMARK  118  A    between atoms: _296  and  _297
REMARK  119  A    between atoms: _296  and  _299
REMARK  120  A    between atoms: _299  and  _300
REMARK  121  A    between atoms: _303  and  _305
REMARK  122  A    between atoms: _305  and  _306
REMARK  123  A    between atoms: _305  and  _308
REMARK  124  A    between atoms: _308  and  _309
REMARK  125  A    between atoms: _315  and  _317
REMARK  126  A    between atoms: _317  and  _318
REMARK  127  A    between atoms: _317  and  _320
REMARK  128  A    between atoms: _320  and  _321
REMARK  129  A    between atoms: _321  and  _322
REMARK  130  A    between atoms: _322  and  _323
REMARK  131  A    between atoms: _332  and  _334
REMARK  132  A    between atoms: _334  and  _335
REMARK  133  A    between atoms: _334  and  _337
REMARK  134  A    between atoms: _340  and  _342
REMARK  135  A    between atoms: _342  and  _343
REMARK  136  A    between atoms: _342  and  _345
REMARK  137  A    between atoms: _345  and  _346
REMARK  138  A    between atoms: _351  and  _353
REMARK  139  A    between atoms: _353  and  _354
REMARK  140  A    between atoms: _353  and  _356
REMARK  141  A    between atoms: _356  and  _357
REMARK  142  A    between atoms: _360  and  _362
REMARK  143  A    between atoms: _362  and  _363
REMARK  144  A    between atoms: _362  and  _365
REMARK  145  A    between atoms: _365  and  _366
REMARK  146  A    between atoms: _366  and  _367
REMARK  147  A    between atoms: _367  and  _368
REMARK  148  A    between atoms: _377  and  _379
REMARK  149  A    between atoms: _379  and  _380
REMARK  150  A    between atoms: _379  and  _382
REMARK  151  A    between atoms: _382  and  _383
REMARK  152  A    between atoms: _386  and  _388
REMARK  153  A    between atoms: _388  and  _389
REMARK  154  A    between atoms: _388  and  _391
REMARK  155  A    between atoms: _391  and  _392
REMARK  156  A    between atoms: _395  and  _397
REMARK  157  A    between atoms: _397  and  _398
REMARK  158  A    between atoms: _397  and  _400
REMARK  159  A    between atoms: _400  and  _401
REMARK  160  A    between atoms: _406  and  _407
REMARK  161  A    between atoms: _409  and  _411
REMARK  162  A    between atoms: _411  and  _412
REMARK  163  A    between atoms: _411  and  _414
REMARK  164  A    between atoms: _414  and  _415
REMARK  165  A    between atoms: _420  and  _421
REMARK  166  A    between atoms: _423  and  _425
REMARK  167  A    between atoms: _425  and  _426
REMARK  168  A    between atoms: _425  and  _428
REMARK  169  A    between atoms: _428  and  _429
REMARK  170  A    between atoms: _432  and  _434
REMARK  171  A    between atoms: _434  and  _435
REMARK  172  A    between atoms: _434  and  _437
REMARK  173  A    between atoms: _437  and  _438
REMARK  174  A    between atoms: _438  and  _439
REMARK  175  A    between atoms: _444  and  _446
REMARK  176  A    between atoms: _446  and  _447
REMARK  177  A    between atoms: _446  and  _449
REMARK  178  A    between atoms: _449  and  _450
REMARK  179  A    between atoms: _460  and  _462
REMARK  180  A    between atoms: _462  and  _463
REMARK  181  A    between atoms: _462  and  _465
REMARK  182  A    between atoms: _465  and  _466
REMARK  183  A    between atoms: _466  and  _467
REMARK  184  A    between atoms: _469  and  _471
REMARK  185  A    between atoms: _471  and  _472
REMARK  186  A    between atoms: _471  and  _474
REMARK  187  A    between atoms: _474  and  _475
REMARK  188  A    between atoms: _480  and  _482
REMARK  189  A    between atoms: _482  and  _483
REMARK  190  A    between atoms: _485  and  _487
REMARK  191  A    between atoms: _487  and  _488
REMARK  192  A    between atoms: _487  and  _490
REMARK  193  A    between atoms: _490  and  _491
REMARK  194  A    between atoms: _491  and  _814
REMARK  195  A    between atoms: _492  and  _494
REMARK  196  A    between atoms: _494  and  _495
REMARK  197  A    between atoms: _494  and  _497
REMARK  198  A    between atoms: _497  and  _498
REMARK  199  A    between atoms: _498  and  _499
REMARK  200  A    between atoms: _502  and  _504
REMARK  201  A    between atoms: _504  and  _505
REMARK  202  A    between atoms: _504  and  _507
REMARK  203  A    between atoms: _507  and  _508
REMARK  204  A    between atoms: _508  and  _509
REMARK  205  A    between atoms: _514  and  _516
REMARK  206  A    between atoms: _516  and  _517
REMARK  207  A    between atoms: _516  and  _519
REMARK  208  A    between atoms: _519  and  _520
REMARK  209  A    between atoms: _526  and  _528
REMARK  210  A    between atoms: _528  and  _529
REMARK  211  A    between atoms: _532  and  _534
REMARK  212  A    between atoms: _534  and  _535
REMARK  213  A    between atoms: _534  and  _537
REMARK  214  A    between atoms: _537  and  _538
REMARK  215  A    between atoms: _543  and  _544
REMARK  216  A    between atoms: _546  and  _548
REMARK  217  A    between atoms: _548  and  _549
REMARK  218  A    between atoms: _548  and  _551
REMARK  219  A    between atoms: _551  and  _552
REMARK  220  A    between atoms: _557  and  _558
REMARK  221  A    between atoms: _560  and  _562
REMARK  222  A    between atoms: _562  and  _563
REMARK  223  A    between atoms: _562  and  _565
REMARK  224  A    between atoms: _565  and  _566
REMARK  225  A    between atoms: _569  and  _571
REMARK  226  A    between atoms: _571  and  _572
REMARK  227  A    between atoms: _571  and  _574
REMARK  228  A    between atoms: _574  and  _575
REMARK  229  A    between atoms: _578  and  _580
REMARK  230  A    between atoms: _580  and  _581
REMARK  231  A    between atoms: _580  and  _583
REMARK  232  A    between atoms: _583  and  _584
REMARK  233  A    between atoms: _587  and  _589
REMARK  234  A    between atoms: _589  and  _590
REMARK  235  A    between atoms: _589  and  _592
REMARK  236  A    between atoms: _592  and  _593
REMARK  237  A    between atoms: _603  and  _605
REMARK  238  A    between atoms: _605  and  _606
REMARK  239  A    between atoms: _605  and  _608
REMARK  240  A    between atoms: _608  and  _609
REMARK  241  A    between atoms: _612  and  _614
REMARK  242  A    between atoms: _614  and  _615
REMARK  243  A    between atoms: _618  and  _620
REMARK  244  A    between atoms: _620  and  _621
REMARK  245  A    between atoms: _624  and  _626
REMARK  246  A    between atoms: _626  and  _627
REMARK  247  A    between atoms: _626  and  _629
REMARK  248  A    between atoms: _629  and  _630
REMARK  249  A    between atoms: _630  and  _631
REMARK  250  A    between atoms: _636  and  _638
REMARK  251  A    between atoms: _638  and  _639
REMARK  252  A    between atoms: _638  and  _641
REMARK  253  A    between atoms: _641  and  _642
REMARK  254  A    between atoms: _645  and  _647
REMARK  255  A    between atoms: _647  and  _648
REMARK  256  A    between atoms: _647  and  _650
REMARK  257  A    between atoms: _650  and  _651
REMARK  258  A    between atoms: _653  and  _655
REMARK  259  A    between atoms: _655  and  _656
REMARK  260  A    between atoms: _655  and  _658
REMARK  261  A    between atoms: _658  and  _659
REMARK  262  A    between atoms: _659  and  _660
REMARK  263  A    between atoms: _663  and  _665
REMARK  264  A    between atoms: _665  and  _666
REMARK  265  A    between atoms: _665  and  _668
REMARK  266  A    between atoms: _668  and  _669
REMARK  267  A    between atoms: _669  and  _670
REMARK  268  A    between atoms: _675  and  _677
REMARK  269  A    between atoms: _677  and  _678
REMARK  270  A    between atoms: _677  and  _680
REMARK  271  A    between atoms: _680  and  _681
REMARK  272  A    between atoms: _681  and  _682
REMARK  273  A    between atoms: _682  and  _683
REMARK  274  A    between atoms: _683  and  _684
REMARK  275  A    between atoms: _688  and  _690
REMARK  276  A    between atoms: _690  and  _691
REMARK  277  A    between atoms: _690  and  _693
REMARK  278  A    between atoms: _693  and  _694
REMARK  279  A    between atoms: _696  and  _698
REMARK  280  A    between atoms: _698  and  _699
REMARK  281  A    between atoms: _698  and  _701
REMARK  282  A    between atoms: _701  and  _702
REMARK  283  A    between atoms: _707  and  _709
REMARK  284  A    between atoms: _709  and  _710
REMARK  285  A    between atoms: _713  and  _715
REMARK  286  A    between atoms: _715  and  _716
REMARK  287  A    between atoms: _715  and  _718
REMARK  288  A    between atoms: _718  and  _719
REMARK  289  A    between atoms: _721  and  _723
REMARK  290  A    between atoms: _723  and  _724
REMARK  291  A    between atoms: _723  and  _726
REMARK  292  A    between atoms: _726  and  _727
REMARK  293  A    between atoms: _727  and  _728
REMARK  294  A    between atoms: _731  and  _733
REMARK  295  A    between atoms: _733  and  _734
REMARK  296  A    between atoms: _737  and  _739
REMARK  297  A    between atoms: _739  and  _740
REMARK  298  A    between atoms: _739  and  _742
REMARK  299  A    between atoms: _742  and  _743
REMARK  300  A    between atoms: _743  and  _744
REMARK  301  A    between atoms: _747  and  _749
REMARK  302  A    between atoms: _749  and  _750
REMARK  303  A    between atoms: _749  and  _752
REMARK  304  A    between atoms: _752  and  _753
REMARK  305  A    between atoms: _758  and  _760
REMARK  306  A    between atoms: _760  and  _761
REMARK  307  A    between atoms: _760  and  _763
REMARK  308  A    between atoms: _763  and  _764
REMARK  309  A    between atoms: _764  and  _765
REMARK  310  A    between atoms: _770  and  _772
REMARK  311  A    between atoms: _772  and  _773
REMARK  312  A    between atoms: _776  and  _778
REMARK  313  A    between atoms: _778  and  _779
REMARK  314  A    between atoms: _778  and  _781
REMARK  315  A    between atoms: _781  and  _782
REMARK  316  A    between atoms: _787  and  _788
REMARK  317  A    between atoms: _790  and  _792
REMARK  318  A    between atoms: _792  and  _793
REMARK  319  A    between atoms: _792  and  _795
REMARK  320  A    between atoms: _795  and  _796
REMARK  321  A    between atoms: _799  and  _801
REMARK  322  A    between atoms: _801  and  _802
REMARK  323  A    between atoms: _801  and  _804
REMARK  324  A    between atoms: _804  and  _805
REMARK  325  A    between atoms: _808  and  _810
REMARK  326  A    between atoms: _810  and  _811
REMARK  327  A    between atoms: _810  and  _813
REMARK  328  A    between atoms: _813  and  _814
REMARK  329  A    between atoms: _815  and  _817
REMARK  330  A    between atoms: _817  and  _818
REMARK  331  A    between atoms: _817  and  _820
REMARK  332  A    between atoms: _823  and  _825
REMARK  333  A    between atoms: _825  and  _826
REMARK  334  A    between atoms: _825  and  _828
REMARK  335  A    between atoms: _828  and  _829
REMARK  336  A    between atoms: _829  and  _830
REMARK  337  A    between atoms: _833  and  _835
REMARK  338  A    between atoms: _835  and  _836
REMARK  339  A    between atoms: _835  and  _838
REMARK  340  A    between atoms: _838  and  _839
REMARK  341  A    between atoms: _849  and  _851
REMARK  342  A    between atoms: _851  and  _852
REMARK  343  A    between atoms: _851  and  _854
REMARK  344  A    between atoms: _854  and  _855
REMARK  345  A    between atoms: _858  and  _860
REMARK  346  A    between atoms: _860  and  _861
REMARK  347  A    between atoms: _860  and  _863
REMARK  348  A    between atoms: _863  and  _864
REMARK  349  A    between atoms: _864  and  _865
REMARK  350  A    between atoms: _865  and  _866
REMARK  351  A    between atoms: _866  and  _867
REMARK  352  A    between atoms: _871  and  _873
REMARK  353  A    between atoms: _873  and  _874
REMARK  354  A    between atoms: _873  and  _876
REMARK  355  A    between atoms: _876  and  _877
REMARK  356  A    between atoms: _882  and  _883
REMARK                            x       y       z     vdW  Elec       q    Type
REMARK                         _______ _______ _______ _____ _____    ______ ____
ROOT
ATOM      1  O   HOH     1      14.890 -16.662  20.028  0.00  0.00    +0.000 OA
ENDROOT
TORSDOF 0
