REMARK  Name = ../refined-set-2016/4zzy/4zzy_pocket.pdb
REMARK  243 active torsions:
REMARK  status: ('A' for Active; 'I' for Inactive)
REMARK    1  A    between atoms: _1  and  _3
REMARK    2  A    between atoms: _3  and  _4
REMARK    3  A    between atoms: _3  and  _6
REMARK    4  A    between atoms: _6  and  _7
REMARK    5  A    between atoms: _12  and  _13
REMARK    6  A    between atoms: _15  and  _17
REMARK    7  A    between atoms: _17  and  _18
REMARK    8  A    between atoms: _17  and  _20
REMARK    9  A    between atoms: _20  and  _21
REMARK   10  A    between atoms: _24  and  _26
REMARK   11  A    between atoms: _26  and  _27
REMARK   12  A    between atoms: _26  and  _29
REMARK   13  A    between atoms: _29  and  _30
REMARK   14  A    between atoms: _30  and  _31
REMARK   15  A    between atoms: _34  and  _36
REMARK   16  A    between atoms: _36  and  _37
REMARK   17  A    between atoms: _36  and  _39
REMARK   18  A    between atoms: _39  and  _40
REMARK   19  A    between atoms: _40  and  _41
REMARK   20  A    between atoms: _46  and  _48
REMARK   21  A    between atoms: _48  and  _49
REMARK   22  A    between atoms: _48  and  _51
REMARK   23  A    between atoms: _51  and  _52
REMARK   24  A    between atoms: _52  and  _53
REMARK   25  A    between atoms: _53  and  _54
REMARK   26  A    between atoms: _54  and  _55
REMARK   27  A    between atoms: _59  and  _61
REMARK   28  A    between atoms: _61  and  _62
REMARK   29  A    between atoms: _61  and  _64
REMARK   30  A    between atoms: _64  and  _65
REMARK   31  A    between atoms: _65  and  _66
REMARK   32  A    between atoms: _69  and  _71
REMARK   33  A    between atoms: _71  and  _72
REMARK   34  A    between atoms: _71  and  _74
REMARK   35  A    between atoms: _74  and  _75
REMARK   36  A    between atoms: _78  and  _80
REMARK   37  A    between atoms: _80  and  _81
REMARK   38  A    between atoms: _80  and  _83
REMARK   39  A    between atoms: _83  and  _84
REMARK   40  A    between atoms: _86  and  _88
REMARK   41  A    between atoms: _88  and  _89
REMARK   42  A    between atoms: _88  and  _91
REMARK   43  A    between atoms: _91  and  _92
REMARK   44  A    between atoms: _92  and  _93
REMARK   45  A    between atoms: _96  and  _98
REMARK   46  A    between atoms: _98  and  _99
REMARK   47  A    between atoms: _98  and  _101
REMARK   48  A    between atoms: _101  and  _102
REMARK   49  A    between atoms: _102  and  _103
REMARK   50  A    between atoms: _103  and  _104
REMARK   51  A    between atoms: _104  and  _105
REMARK   52  A    between atoms: _109  and  _111
REMARK   53  A    between atoms: _111  and  _112
REMARK   54  A    between atoms: _111  and  _114
REMARK   55  A    between atoms: _114  and  _115
REMARK   56  A    between atoms: _118  and  _120
REMARK   57  A    between atoms: _120  and  _121
REMARK   58  A    between atoms: _120  and  _123
REMARK   59  A    between atoms: _123  and  _124
REMARK   60  A    between atoms: _124  and  _125
REMARK   61  A    between atoms: _130  and  _132
REMARK   62  A    between atoms: _132  and  _133
REMARK   63  A    between atoms: _132  and  _135
REMARK   64  A    between atoms: _135  and  _136
REMARK   65  A    between atoms: _139  and  _141
REMARK   66  A    between atoms: _141  and  _142
REMARK   67  A    between atoms: _141  and  _144
REMARK   68  A    between atoms: _144  and  _145
REMARK   69  A    between atoms: _145  and  _146
REMARK   70  A    between atoms: _149  and  _151
REMARK   71  A    between atoms: _151  and  _152
REMARK   72  A    between atoms: _151  and  _154
REMARK   73  A    between atoms: _154  and  _155
REMARK   74  A    between atoms: _158  and  _160
REMARK   75  A    between atoms: _160  and  _161
REMARK   76  A    between atoms: _160  and  _163
REMARK   77  A    between atoms: _163  and  _164
REMARK   78  A    between atoms: _174  and  _176
REMARK   79  A    between atoms: _176  and  _177
REMARK   80  A    between atoms: _176  and  _179
REMARK   81  A    between atoms: _179  and  _180
REMARK   82  A    between atoms: _185  and  _187
REMARK   83  A    between atoms: _187  and  _188
REMARK   84  A    between atoms: _190  and  _192
REMARK   85  A    between atoms: _192  and  _193
REMARK   86  A    between atoms: _192  and  _195
REMARK   87  A    between atoms: _195  and  _196
REMARK   88  A    between atoms: _198  and  _200
REMARK   89  A    between atoms: _200  and  _201
REMARK   90  A    between atoms: _200  and  _203
REMARK   91  A    between atoms: _203  and  _204
REMARK   92  A    between atoms: _204  and  _205
REMARK   93  A    between atoms: _205  and  _206
REMARK   94  A    between atoms: _215  and  _217
REMARK   95  A    between atoms: _217  and  _218
REMARK   96  A    between atoms: _217  and  _220
REMARK   97  A    between atoms: _220  and  _221
REMARK   98  A    between atoms: _226  and  _228
REMARK   99  A    between atoms: _228  and  _229
REMARK  100  A    between atoms: _228  and  _231
REMARK  101  A    between atoms: _231  and  _232
REMARK  102  A    between atoms: _242  and  _244
REMARK  103  A    between atoms: _244  and  _245
REMARK  104  A    between atoms: _244  and  _247
REMARK  105  A    between atoms: _247  and  _248
REMARK  106  A    between atoms: _251  and  _253
REMARK  107  A    between atoms: _253  and  _254
REMARK  108  A    between atoms: _257  and  _259
REMARK  109  A    between atoms: _259  and  _260
REMARK  110  A    between atoms: _264  and  _265
REMARK  111  A    between atoms: _270  and  _272
REMARK  112  A    between atoms: _272  and  _273
REMARK  113  A    between atoms: _272  and  _275
REMARK  114  A    between atoms: _275  and  _276
REMARK  115  A    between atoms: _279  and  _281
REMARK  116  A    between atoms: _281  and  _282
REMARK  117  A    between atoms: _281  and  _284
REMARK  118  A    between atoms: _284  and  _285
REMARK  119  A    between atoms: _288  and  _290
REMARK  120  A    between atoms: _290  and  _291
REMARK  121  A    between atoms: _293  and  _295
REMARK  122  A    between atoms: _295  and  _296
REMARK  123  A    between atoms: _295  and  _298
REMARK  124  A    between atoms: _298  and  _299
REMARK  125  A    between atoms: _304  and  _305
REMARK  126  A    between atoms: _307  and  _309
REMARK  127  A    between atoms: _309  and  _310
REMARK  128  A    between atoms: _309  and  _312
REMARK  129  A    between atoms: _312  and  _313
REMARK  130  A    between atoms: _313  and  _314
REMARK  131  A    between atoms: _316  and  _318
REMARK  132  A    between atoms: _318  and  _319
REMARK  133  A    between atoms: _318  and  _321
REMARK  134  A    between atoms: _321  and  _322
REMARK  135  A    between atoms: _328  and  _330
REMARK  136  A    between atoms: _330  and  _331
REMARK  137  A    between atoms: _333  and  _335
REMARK  138  A    between atoms: _335  and  _336
REMARK  139  A    between atoms: _335  and  _338
REMARK  140  A    between atoms: _338  and  _339
REMARK  141  A    between atoms: _339  and  _340
REMARK  142  A    between atoms: _340  and  _341
REMARK  143  A    between atoms: _341  and  _342
REMARK  144  A    between atoms: _346  and  _348
REMARK  145  A    between atoms: _348  and  _349
REMARK  146  A    between atoms: _351  and  _353
REMARK  147  A    between atoms: _353  and  _354
REMARK  148  A    between atoms: _353  and  _356
REMARK  149  A    between atoms: _356  and  _357
REMARK  150  A    between atoms: _360  and  _362
REMARK  151  A    between atoms: _362  and  _363
REMARK  152  A    between atoms: _362  and  _365
REMARK  153  A    between atoms: _365  and  _366
REMARK  154  A    between atoms: _371  and  _372
REMARK  155  A    between atoms: _374  and  _376
REMARK  156  A    between atoms: _376  and  _377
REMARK  157  A    between atoms: _376  and  _379
REMARK  158  A    between atoms: _379  and  _380
REMARK  159  A    between atoms: _386  and  _388
REMARK  160  A    between atoms: _388  and  _389
REMARK  161  A    between atoms: _392  and  _394
REMARK  162  A    between atoms: _394  and  _395
REMARK  163  A    between atoms: _394  and  _397
REMARK  164  A    between atoms: _397  and  _398
REMARK  165  A    between atoms: _401  and  _403
REMARK  166  A    between atoms: _403  and  _404
REMARK  167  A    between atoms: _403  and  _406
REMARK  168  A    between atoms: _406  and  _407
REMARK  169  A    between atoms: _407  and  _408
REMARK  170  A    between atoms: _410  and  _412
REMARK  171  A    between atoms: _412  and  _413
REMARK  172  A    between atoms: _412  and  _415
REMARK  173  A    between atoms: _415  and  _416
REMARK  174  A    between atoms: _418  and  _420
REMARK  175  A    between atoms: _420  and  _421
REMARK  176  A    between atoms: _420  and  _423
REMARK  177  A    between atoms: _423  and  _424
REMARK  178  A    between atoms: _426  and  _428
REMARK  179  A    between atoms: _428  and  _429
REMARK  180  A    between atoms: _428  and  _431
REMARK  181  A    between atoms: _431  and  _432
REMARK  182  A    between atoms: _432  and  _433
REMARK  183  A    between atoms: _433  and  _434
REMARK  184  A    between atoms: _434  and  _435
REMARK  185  A    between atoms: _439  and  _441
REMARK  186  A    between atoms: _441  and  _442
REMARK  187  A    between atoms: _441  and  _444
REMARK  188  A    between atoms: _444  and  _445
REMARK  189  A    between atoms: _447  and  _449
REMARK  190  A    between atoms: _449  and  _450
REMARK  191  A    between atoms: _453  and  _455
REMARK  192  A    between atoms: _455  and  _456
REMARK  193  A    between atoms: _455  and  _458
REMARK  194  A    between atoms: _458  and  _459
REMARK  195  A    between atoms: _464  and  _466
REMARK  196  A    between atoms: _466  and  _467
REMARK  197  A    between atoms: _466  and  _469
REMARK  198  A    between atoms: _469  and  _470
REMARK  199  A    between atoms: _475  and  _476
REMARK  200  A    between atoms: _478  and  _480
REMARK  201  A    between atoms: _480  and  _481
REMARK  202  A    between atoms: _480  and  _483
REMARK  203  A    between atoms: _485  and  _487
REMARK  204  A    between atoms: _487  and  _488
REMARK  205  A    between atoms: _487  and  _490
REMARK  206  A    between atoms: _490  and  _491
REMARK  207  A    between atoms: _497  and  _499
REMARK  208  A    between atoms: _499  and  _500
REMARK  209  A    between atoms: _499  and  _502
REMARK  210  A    between atoms: _502  and  _503
REMARK  211  A    between atoms: _506  and  _508
REMARK  212  A    between atoms: _508  and  _509
REMARK  213  A    between atoms: _508  and  _511
REMARK  214  A    between atoms: _511  and  _512
REMARK  215  A    between atoms: _515  and  _517
REMARK  216  A    between atoms: _517  and  _518
REMARK  217  A    between atoms: _520  and  _522
REMARK  218  A    between atoms: _522  and  _523
REMARK  219  A    between atoms: _522  and  _525
REMARK  220  A    between atoms: _525  and  _526
REMARK  221  A    between atoms: _529  and  _531
REMARK  222  A    between atoms: _531  and  _532
REMARK  223  A    between atoms: _531  and  _534
REMARK  224  A    between atoms: _534  and  _535
REMARK  225  A    between atoms: _540  and  _541
REMARK  226  A    between atoms: _543  and  _545
REMARK  227  A    between atoms: _545  and  _546
REMARK  228  A    between atoms: _545  and  _548
REMARK  229  A    between atoms: _548  and  _549
REMARK  230  A    between atoms: _554  and  _556
REMARK  231  A    between atoms: _556  and  _557
REMARK  232  A    between atoms: _556  and  _559
REMARK  233  A    between atoms: _559  and  _560
REMARK  234  A    between atoms: _560  and  _561
REMARK  235  A    between atoms: _564  and  _566
REMARK  236  A    between atoms: _566  and  _567
REMARK  237  A    between atoms: _566  and  _569
REMARK  238  A    between atoms: _569  and  _570
REMARK  239  A    between atoms: _575  and  _576
REMARK  240  A    between atoms: _578  and  _580
REMARK  241  A    between atoms: _580  and  _581
REMARK  242  A    between atoms: _580  and  _583
REMARK  243  A    between atoms: _583  and  _584
REMARK                            x       y       z     vdW  Elec       q    Type
REMARK                         _______ _______ _______ _____ _____    ______ ____
ROOT
ATOM      1  CG  TYR A   1       8.355 -29.499   8.925  0.00  0.00    -0.020 A 
ATOM      2  CD2 TYR A   1       9.704 -29.681   8.612  0.00  0.00    -0.001 A 
ATOM      3  CE2 TYR A   1      10.343 -28.835   7.677  0.00  0.00    +0.036 A 
ATOM      4  CZ  TYR A   1       9.616 -27.791   7.081  0.00  0.00    +0.134 A 
ATOM      5  CE1 TYR A   1       8.282 -27.614   7.367  0.00  0.00    +0.036 A 
ATOM      6  CD1 TYR A   1       7.659 -28.457   8.292  0.00  0.00    -0.001 A 
ENDROOT
BRANCH   4   7
ATOM      7  OH  TYR A   1      10.180 -26.944   6.169  0.00  0.00    -0.506 OA
ATOM      8  HH  TYR A   1      11.136 -27.175   6.053  0.00  0.00    +0.292 HD
ENDBRANCH   4   7
BRANCH   1   9
ATOM      9  CB  TYR A   1       7.655 -30.396   9.926  0.00  0.00    +0.051 C 
BRANCH   9  10
ATOM     10  CA  TYR A   1       7.659 -31.871   9.509  0.00  0.00    +0.137 C 
BRANCH  10  11
ATOM     11  N   TYR A   1       6.604 -32.156   8.545  0.00  0.00    -0.239 NA
ATOM     12  H   TYR A   1       5.945 -31.400   8.271  0.00  0.00    +0.142 HD
ENDBRANCH  10  11
BRANCH  10  13
ATOM     13  C   TYR A   1       7.477 -32.722  10.763  0.00  0.00    +0.224 C 
ATOM     14  O   TYR A   1       8.454 -33.233  11.350  0.00  0.00    -0.287 OA
ENDBRANCH  10  13
ENDBRANCH   9  10
ENDBRANCH   1   9
TORSDOF 5
REMARK  Name = ../refined-set-2016/4zzy/4zzy_pocket.pdb
REMARK  243 active torsions:
REMARK  status: ('A' for Active; 'I' for Inactive)
REMARK    1  A    between atoms: _1  and  _3
REMARK    2  A    between atoms: _3  and  _4
REMARK    3  A    between atoms: _3  and  _6
REMARK    4  A    between atoms: _6  and  _7
REMARK    5  A    between atoms: _12  and  _13
REMARK    6  A    between atoms: _15  and  _17
REMARK    7  A    between atoms: _17  and  _18
REMARK    8  A    between atoms: _17  and  _20
REMARK    9  A    between atoms: _20  and  _21
REMARK   10  A    between atoms: _24  and  _26
REMARK   11  A    between atoms: _26  and  _27
REMARK   12  A    between atoms: _26  and  _29
REMARK   13  A    between atoms: _29  and  _30
REMARK   14  A    between atoms: _30  and  _31
REMARK   15  A    between atoms: _34  and  _36
REMARK   16  A    between atoms: _36  and  _37
REMARK   17  A    between atoms: _36  and  _39
REMARK   18  A    between atoms: _39  and  _40
REMARK   19  A    between atoms: _40  and  _41
REMARK   20  A    between atoms: _46  and  _48
REMARK   21  A    between atoms: _48  and  _49
REMARK   22  A    between atoms: _48  and  _51
REMARK   23  A    between atoms: _51  and  _52
REMARK   24  A    between atoms: _52  and  _53
REMARK   25  A    between atoms: _53  and  _54
REMARK   26  A    between atoms: _54  and  _55
REMARK   27  A    between atoms: _59  and  _61
REMARK   28  A    between atoms: _61  and  _62
REMARK   29  A    between atoms: _61  and  _64
REMARK   30  A    between atoms: _64  and  _65
REMARK   31  A    between atoms: _65  and  _66
REMARK   32  A    between atoms: _69  and  _71
REMARK   33  A    between atoms: _71  and  _72
REMARK   34  A    between atoms: _71  and  _74
REMARK   35  A    between atoms: _74  and  _75
REMARK   36  A    between atoms: _78  and  _80
REMARK   37  A    between atoms: _80  and  _81
REMARK   38  A    between atoms: _80  and  _83
REMARK   39  A    between atoms: _83  and  _84
REMARK   40  A    between atoms: _86  and  _88
REMARK   41  A    between atoms: _88  and  _89
REMARK   42  A    between atoms: _88  and  _91
REMARK   43  A    between atoms: _91  and  _92
REMARK   44  A    between atoms: _92  and  _93
REMARK   45  A    between atoms: _96  and  _98
REMARK   46  A    between atoms: _98  and  _99
REMARK   47  A    between atoms: _98  and  _101
REMARK   48  A    between atoms: _101  and  _102
REMARK   49  A    between atoms: _102  and  _103
REMARK   50  A    between atoms: _103  and  _104
REMARK   51  A    between atoms: _104  and  _105
REMARK   52  A    between atoms: _109  and  _111
REMARK   53  A    between atoms: _111  and  _112
REMARK   54  A    between atoms: _111  and  _114
REMARK   55  A    between atoms: _114  and  _115
REMARK   56  A    between atoms: _118  and  _120
REMARK   57  A    between atoms: _120  and  _121
REMARK   58  A    between atoms: _120  and  _123
REMARK   59  A    between atoms: _123  and  _124
REMARK   60  A    between atoms: _124  and  _125
REMARK   61  A    between atoms: _130  and  _132
REMARK   62  A    between atoms: _132  and  _133
REMARK   63  A    between atoms: _132  and  _135
REMARK   64  A    between atoms: _135  and  _136
REMARK   65  A    between atoms: _139  and  _141
REMARK   66  A    between atoms: _141  and  _142
REMARK   67  A    between atoms: _141  and  _144
REMARK   68  A    between atoms: _144  and  _145
REMARK   69  A    between atoms: _145  and  _146
REMARK   70  A    between atoms: _149  and  _151
REMARK   71  A    between atoms: _151  and  _152
REMARK   72  A    between atoms: _151  and  _154
REMARK   73  A    between atoms: _154  and  _155
REMARK   74  A    between atoms: _158  and  _160
REMARK   75  A    between atoms: _160  and  _161
REMARK   76  A    between atoms: _160  and  _163
REMARK   77  A    between atoms: _163  and  _164
REMARK   78  A    between atoms: _174  and  _176
REMARK   79  A    between atoms: _176  and  _177
REMARK   80  A    between atoms: _176  and  _179
REMARK   81  A    between atoms: _179  and  _180
REMARK   82  A    between atoms: _185  and  _187
REMARK   83  A    between atoms: _187  and  _188
REMARK   84  A    between atoms: _190  and  _192
REMARK   85  A    between atoms: _192  and  _193
REMARK   86  A    between atoms: _192  and  _195
REMARK   87  A    between atoms: _195  and  _196
REMARK   88  A    between atoms: _198  and  _200
REMARK   89  A    between atoms: _200  and  _201
REMARK   90  A    between atoms: _200  and  _203
REMARK   91  A    between atoms: _203  and  _204
REMARK   92  A    between atoms: _204  and  _205
REMARK   93  A    between atoms: _205  and  _206
REMARK   94  A    between atoms: _215  and  _217
REMARK   95  A    between atoms: _217  and  _218
REMARK   96  A    between atoms: _217  and  _220
REMARK   97  A    between atoms: _220  and  _221
REMARK   98  A    between atoms: _226  and  _228
REMARK   99  A    between atoms: _228  and  _229
REMARK  100  A    between atoms: _228  and  _231
REMARK  101  A    between atoms: _231  and  _232
REMARK  102  A    between atoms: _242  and  _244
REMARK  103  A    between atoms: _244  and  _245
REMARK  104  A    between atoms: _244  and  _247
REMARK  105  A    between atoms: _247  and  _248
REMARK  106  A    between atoms: _251  and  _253
REMARK  107  A    between atoms: _253  and  _254
REMARK  108  A    between atoms: _257  and  _259
REMARK  109  A    between atoms: _259  and  _260
REMARK  110  A    between atoms: _264  and  _265
REMARK  111  A    between atoms: _270  and  _272
REMARK  112  A    between atoms: _272  and  _273
REMARK  113  A    between atoms: _272  and  _275
REMARK  114  A    between atoms: _275  and  _276
REMARK  115  A    between atoms: _279  and  _281
REMARK  116  A    between atoms: _281  and  _282
REMARK  117  A    between atoms: _281  and  _284
REMARK  118  A    between atoms: _284  and  _285
REMARK  119  A    between atoms: _288  and  _290
REMARK  120  A    between atoms: _290  and  _291
REMARK  121  A    between atoms: _293  and  _295
REMARK  122  A    between atoms: _295  and  _296
REMARK  123  A    between atoms: _295  and  _298
REMARK  124  A    between atoms: _298  and  _299
REMARK  125  A    between atoms: _304  and  _305
REMARK  126  A    between atoms: _307  and  _309
REMARK  127  A    between atoms: _309  and  _310
REMARK  128  A    between atoms: _309  and  _312
REMARK  129  A    between atoms: _312  and  _313
REMARK  130  A    between atoms: _313  and  _314
REMARK  131  A    between atoms: _316  and  _318
REMARK  132  A    between atoms: _318  and  _319
REMARK  133  A    between atoms: _318  and  _321
REMARK  134  A    between atoms: _321  and  _322
REMARK  135  A    between atoms: _328  and  _330
REMARK  136  A    between atoms: _330  and  _331
REMARK  137  A    between atoms: _333  and  _335
REMARK  138  A    between atoms: _335  and  _336
REMARK  139  A    between atoms: _335  and  _338
REMARK  140  A    between atoms: _338  and  _339
REMARK  141  A    between atoms: _339  and  _340
REMARK  142  A    between atoms: _340  and  _341
REMARK  143  A    between atoms: _341  and  _342
REMARK  144  A    between atoms: _346  and  _348
REMARK  145  A    between atoms: _348  and  _349
REMARK  146  A    between atoms: _351  and  _353
REMARK  147  A    between atoms: _353  and  _354
REMARK  148  A    between atoms: _353  and  _356
REMARK  149  A    between atoms: _356  and  _357
REMARK  150  A    between atoms: _360  and  _362
REMARK  151  A    between atoms: _362  and  _363
REMARK  152  A    between atoms: _362  and  _365
REMARK  153  A    between atoms: _365  and  _366
REMARK  154  A    between atoms: _371  and  _372
REMARK  155  A    between atoms: _374  and  _376
REMARK  156  A    between atoms: _376  and  _377
REMARK  157  A    between atoms: _376  and  _379
REMARK  158  A    between atoms: _379  and  _380
REMARK  159  A    between atoms: _386  and  _388
REMARK  160  A    between atoms: _388  and  _389
REMARK  161  A    between atoms: _392  and  _394
REMARK  162  A    between atoms: _394  and  _395
REMARK  163  A    between atoms: _394  and  _397
REMARK  164  A    between atoms: _397  and  _398
REMARK  165  A    between atoms: _401  and  _403
REMARK  166  A    between atoms: _403  and  _404
REMARK  167  A    between atoms: _403  and  _406
REMARK  168  A    between atoms: _406  and  _407
REMARK  169  A    between atoms: _407  and  _408
REMARK  170  A    between atoms: _410  and  _412
REMARK  171  A    between atoms: _412  and  _413
REMARK  172  A    between atoms: _412  and  _415
REMARK  173  A    between atoms: _415  and  _416
REMARK  174  A    between atoms: _418  and  _420
REMARK  175  A    between atoms: _420  and  _421
REMARK  176  A    between atoms: _420  and  _423
REMARK  177  A    between atoms: _423  and  _424
REMARK  178  A    between atoms: _426  and  _428
REMARK  179  A    between atoms: _428  and  _429
REMARK  180  A    between atoms: _428  and  _431
REMARK  181  A    between atoms: _431  and  _432
REMARK  182  A    between atoms: _432  and  _433
REMARK  183  A    between atoms: _433  and  _434
REMARK  184  A    between atoms: _434  and  _435
REMARK  185  A    between atoms: _439  and  _441
REMARK  186  A    between atoms: _441  and  _442
REMARK  187  A    between atoms: _441  and  _444
REMARK  188  A    between atoms: _444  and  _445
REMARK  189  A    between atoms: _447  and  _449
REMARK  190  A    between atoms: _449  and  _450
REMARK  191  A    between atoms: _453  and  _455
REMARK  192  A    between atoms: _455  and  _456
REMARK  193  A    between atoms: _455  and  _458
REMARK  194  A    between atoms: _458  and  _459
REMARK  195  A    between atoms: _464  and  _466
REMARK  196  A    between atoms: _466  and  _467
REMARK  197  A    between atoms: _466  and  _469
REMARK  198  A    between atoms: _469  and  _470
REMARK  199  A    between atoms: _475  and  _476
REMARK  200  A    between atoms: _478  and  _480
REMARK  201  A    between atoms: _480  and  _481
REMARK  202  A    between atoms: _480  and  _483
REMARK  203  A    between atoms: _485  and  _487
REMARK  204  A    between atoms: _487  and  _488
REMARK  205  A    between atoms: _487  and  _490
REMARK  206  A    between atoms: _490  and  _491
REMARK  207  A    between atoms: _497  and  _499
REMARK  208  A    between atoms: _499  and  _500
REMARK  209  A    between atoms: _499  and  _502
REMARK  210  A    between atoms: _502  and  _503
REMARK  211  A    between atoms: _506  and  _508
REMARK  212  A    between atoms: _508  and  _509
REMARK  213  A    between atoms: _508  and  _511
REMARK  214  A    between atoms: _511  and  _512
REMARK  215  A    between atoms: _515  and  _517
REMARK  216  A    between atoms: _517  and  _518
REMARK  217  A    between atoms: _520  and  _522
REMARK  218  A    between atoms: _522  and  _523
REMARK  219  A    between atoms: _522  and  _525
REMARK  220  A    between atoms: _525  and  _526
REMARK  221  A    between atoms: _529  and  _531
REMARK  222  A    between atoms: _531  and  _532
REMARK  223  A    between atoms: _531  and  _534
REMARK  224  A    between atoms: _534  and  _535
REMARK  225  A    between atoms: _540  and  _541
REMARK  226  A    between atoms: _543  and  _545
REMARK  227  A    between atoms: _545  and  _546
REMARK  228  A    between atoms: _545  and  _548
REMARK  229  A    between atoms: _548  and  _549
REMARK  230  A    between atoms: _554  and  _556
REMARK  231  A    between atoms: _556  and  _557
REMARK  232  A    between atoms: _556  and  _559
REMARK  233  A    between atoms: _559  and  _560
REMARK  234  A    between atoms: _560  and  _561
REMARK  235  A    between atoms: _564  and  _566
REMARK  236  A    between atoms: _566  and  _567
REMARK  237  A    between atoms: _566  and  _569
REMARK  238  A    between atoms: _569  and  _570
REMARK  239  A    between atoms: _575  and  _576
REMARK  240  A    between atoms: _578  and  _580
REMARK  241  A    between atoms: _580  and  _581
REMARK  242  A    between atoms: _580  and  _583
REMARK  243  A    between atoms: _583  and  _584
REMARK                            x       y       z     vdW  Elec       q    Type
REMARK                         _______ _______ _______ _____ _____    ______ ____
ROOT
ATOM      1  CA  LEU A   1      10.402 -35.913   9.925  0.00  0.00    +0.133 C 
ENDROOT
BRANCH   1   2
ATOM      2  N   LEU A   1       8.934 -36.019  10.022  0.00  0.00    -0.239 NA
ATOM      3  H   LEU A   1       8.335 -35.258   9.642  0.00  0.00    +0.142 HD
ENDBRANCH   1   2
BRANCH   1   4
ATOM      4  C   LEU A   1      10.973 -35.808  11.322  0.00  0.00    +0.224 C 
ATOM      5  O   LEU A   1      12.012 -36.334  11.580  0.00  0.00    -0.287 OA
ENDBRANCH   1   4
BRANCH   1   6
ATOM      6  CB  LEU A   1      10.854 -34.722   9.059  0.00  0.00    +0.025 C 
BRANCH   6   7
ATOM      7  CG  LEU A   1      10.541 -34.919   7.558  0.00  0.00    +0.002 C 
ATOM      8  CD2 LEU A   1      11.261 -36.108   6.942  0.00  0.00    +0.000 C 
ATOM      9  CD1 LEU A   1      10.899 -33.653   6.757  0.00  0.00    +0.000 C 
ENDBRANCH   6   7
ENDBRANCH   1   6
TORSDOF 4
REMARK  Name = ../refined-set-2016/4zzy/4zzy_pocket.pdb
REMARK  243 active torsions:
REMARK  status: ('A' for Active; 'I' for Inactive)
REMARK    1  A    between atoms: _1  and  _3
REMARK    2  A    between atoms: _3  and  _4
REMARK    3  A    between atoms: _3  and  _6
REMARK    4  A    between atoms: _6  and  _7
REMARK    5  A    between atoms: _12  and  _13
REMARK    6  A    between atoms: _15  and  _17
REMARK    7  A    between atoms: _17  and  _18
REMARK    8  A    between atoms: _17  and  _20
REMARK    9  A    between atoms: _20  and  _21
REMARK   10  A    between atoms: _24  and  _26
REMARK   11  A    between atoms: _26  and  _27
REMARK   12  A    between atoms: _26  and  _29
REMARK   13  A    between atoms: _29  and  _30
REMARK   14  A    between atoms: _30  and  _31
REMARK   15  A    between atoms: _34  and  _36
REMARK   16  A    between atoms: _36  and  _37
REMARK   17  A    between atoms: _36  and  _39
REMARK   18  A    between atoms: _39  and  _40
REMARK   19  A    between atoms: _40  and  _41
REMARK   20  A    between atoms: _46  and  _48
REMARK   21  A    between atoms: _48  and  _49
REMARK   22  A    between atoms: _48  and  _51
REMARK   23  A    between atoms: _51  and  _52
REMARK   24  A    between atoms: _52  and  _53
REMARK   25  A    between atoms: _53  and  _54
REMARK   26  A    between atoms: _54  and  _55
REMARK   27  A    between atoms: _59  and  _61
REMARK   28  A    between atoms: _61  and  _62
REMARK   29  A    between atoms: _61  and  _64
REMARK   30  A    between atoms: _64  and  _65
REMARK   31  A    between atoms: _65  and  _66
REMARK   32  A    between atoms: _69  and  _71
REMARK   33  A    between atoms: _71  and  _72
REMARK   34  A    between atoms: _71  and  _74
REMARK   35  A    between atoms: _74  and  _75
REMARK   36  A    between atoms: _78  and  _80
REMARK   37  A    between atoms: _80  and  _81
REMARK   38  A    between atoms: _80  and  _83
REMARK   39  A    between atoms: _83  and  _84
REMARK   40  A    between atoms: _86  and  _88
REMARK   41  A    between atoms: _88  and  _89
REMARK   42  A    between atoms: _88  and  _91
REMARK   43  A    between atoms: _91  and  _92
REMARK   44  A    between atoms: _92  and  _93
REMARK   45  A    between atoms: _96  and  _98
REMARK   46  A    between atoms: _98  and  _99
REMARK   47  A    between atoms: _98  and  _101
REMARK   48  A    between atoms: _101  and  _102
REMARK   49  A    between atoms: _102  and  _103
REMARK   50  A    between atoms: _103  and  _104
REMARK   51  A    between atoms: _104  and  _105
REMARK   52  A    between atoms: _109  and  _111
REMARK   53  A    between atoms: _111  and  _112
REMARK   54  A    between atoms: _111  and  _114
REMARK   55  A    between atoms: _114  and  _115
REMARK   56  A    between atoms: _118  and  _120
REMARK   57  A    between atoms: _120  and  _121
REMARK   58  A    between atoms: _120  and  _123
REMARK   59  A    between atoms: _123  and  _124
REMARK   60  A    between atoms: _124  and  _125
REMARK   61  A    between atoms: _130  and  _132
REMARK   62  A    between atoms: _132  and  _133
REMARK   63  A    between atoms: _132  and  _135
REMARK   64  A    between atoms: _135  and  _136
REMARK   65  A    between atoms: _139  and  _141
REMARK   66  A    between atoms: _141  and  _142
REMARK   67  A    between atoms: _141  and  _144
REMARK   68  A    between atoms: _144  and  _145
REMARK   69  A    between atoms: _145  and  _146
REMARK   70  A    between atoms: _149  and  _151
REMARK   71  A    between atoms: _151  and  _152
REMARK   72  A    between atoms: _151  and  _154
REMARK   73  A    between atoms: _154  and  _155
REMARK   74  A    between atoms: _158  and  _160
REMARK   75  A    between atoms: _160  and  _161
REMARK   76  A    between atoms: _160  and  _163
REMARK   77  A    between atoms: _163  and  _164
REMARK   78  A    between atoms: _174  and  _176
REMARK   79  A    between atoms: _176  and  _177
REMARK   80  A    between atoms: _176  and  _179
REMARK   81  A    between atoms: _179  and  _180
REMARK   82  A    between atoms: _185  and  _187
REMARK   83  A    between atoms: _187  and  _188
REMARK   84  A    between atoms: _190  and  _192
REMARK   85  A    between atoms: _192  and  _193
REMARK   86  A    between atoms: _192  and  _195
REMARK   87  A    between atoms: _195  and  _196
REMARK   88  A    between atoms: _198  and  _200
REMARK   89  A    between atoms: _200  and  _201
REMARK   90  A    between atoms: _200  and  _203
REMARK   91  A    between atoms: _203  and  _204
REMARK   92  A    between atoms: _204  and  _205
REMARK   93  A    between atoms: _205  and  _206
REMARK   94  A    between atoms: _215  and  _217
REMARK   95  A    between atoms: _217  and  _218
REMARK   96  A    between atoms: _217  and  _220
REMARK   97  A    between atoms: _220  and  _221
REMARK   98  A    between atoms: _226  and  _228
REMARK   99  A    between atoms: _228  and  _229
REMARK  100  A    between atoms: _228  and  _231
REMARK  101  A    between atoms: _231  and  _232
REMARK  102  A    between atoms: _242  and  _244
REMARK  103  A    between atoms: _244  and  _245
REMARK  104  A    between atoms: _244  and  _247
REMARK  105  A    between atoms: _247  and  _248
REMARK  106  A    between atoms: _251  and  _253
REMARK  107  A    between atoms: _253  and  _254
REMARK  108  A    between atoms: _257  and  _259
REMARK  109  A    between atoms: _259  and  _260
REMARK  110  A    between atoms: _264  and  _265
REMARK  111  A    between atoms: _270  and  _272
REMARK  112  A    between atoms: _272  and  _273
REMARK  113  A    between atoms: _272  and  _275
REMARK  114  A    between atoms: _275  and  _276
REMARK  115  A    between atoms: _279  and  _281
REMARK  116  A    between atoms: _281  and  _282
REMARK  117  A    between atoms: _281  and  _284
REMARK  118  A    between atoms: _284  and  _285
REMARK  119  A    between atoms: _288  and  _290
REMARK  120  A    between atoms: _290  and  _291
REMARK  121  A    between atoms: _293  and  _295
REMARK  122  A    between atoms: _295  and  _296
REMARK  123  A    between atoms: _295  and  _298
REMARK  124  A    between atoms: _298  and  _299
REMARK  125  A    between atoms: _304  and  _305
REMARK  126  A    between atoms: _307  and  _309
REMARK  127  A    between atoms: _309  and  _310
REMARK  128  A    between atoms: _309  and  _312
REMARK  129  A    between atoms: _312  and  _313
REMARK  130  A    between atoms: _313  and  _314
REMARK  131  A    between atoms: _316  and  _318
REMARK  132  A    between atoms: _318  and  _319
REMARK  133  A    between atoms: _318  and  _321
REMARK  134  A    between atoms: _321  and  _322
REMARK  135  A    between atoms: _328  and  _330
REMARK  136  A    between atoms: _330  and  _331
REMARK  137  A    between atoms: _333  and  _335
REMARK  138  A    between atoms: _335  and  _336
REMARK  139  A    between atoms: _335  and  _338
REMARK  140  A    between atoms: _338  and  _339
REMARK  141  A    between atoms: _339  and  _340
REMARK  142  A    between atoms: _340  and  _341
REMARK  143  A    between atoms: _341  and  _342
REMARK  144  A    between atoms: _346  and  _348
REMARK  145  A    between atoms: _348  and  _349
REMARK  146  A    between atoms: _351  and  _353
REMARK  147  A    between atoms: _353  and  _354
REMARK  148  A    between atoms: _353  and  _356
REMARK  149  A    between atoms: _356  and  _357
REMARK  150  A    between atoms: _360  and  _362
REMARK  151  A    between atoms: _362  and  _363
REMARK  152  A    between atoms: _362  and  _365
REMARK  153  A    between atoms: _365  and  _366
REMARK  154  A    between atoms: _371  and  _372
REMARK  155  A    between atoms: _374  and  _376
REMARK  156  A    between atoms: _376  and  _377
REMARK  157  A    between atoms: _376  and  _379
REMARK  158  A    between atoms: _379  and  _380
REMARK  159  A    between atoms: _386  and  _388
REMARK  160  A    between atoms: _388  and  _389
REMARK  161  A    between atoms: _392  and  _394
REMARK  162  A    between atoms: _394  and  _395
REMARK  163  A    between atoms: _394  and  _397
REMARK  164  A    between atoms: _397  and  _398
REMARK  165  A    between atoms: _401  and  _403
REMARK  166  A    between atoms: _403  and  _404
REMARK  167  A    between atoms: _403  and  _406
REMARK  168  A    between atoms: _406  and  _407
REMARK  169  A    between atoms: _407  and  _408
REMARK  170  A    between atoms: _410  and  _412
REMARK  171  A    between atoms: _412  and  _413
REMARK  172  A    between atoms: _412  and  _415
REMARK  173  A    between atoms: _415  and  _416
REMARK  174  A    between atoms: _418  and  _420
REMARK  175  A    between atoms: _420  and  _421
REMARK  176  A    between atoms: _420  and  _423
REMARK  177  A    between atoms: _423  and  _424
REMARK  178  A    between atoms: _426  and  _428
REMARK  179  A    between atoms: _428  and  _429
REMARK  180  A    between atoms: _428  and  _431
REMARK  181  A    between atoms: _431  and  _432
REMARK  182  A    between atoms: _432  and  _433
REMARK  183  A    between atoms: _433  and  _434
REMARK  184  A    between atoms: _434  and  _435
REMARK  185  A    between atoms: _439  and  _441
REMARK  186  A    between atoms: _441  and  _442
REMARK  187  A    between atoms: _441  and  _444
REMARK  188  A    between atoms: _444  and  _445
REMARK  189  A    between atoms: _447  and  _449
REMARK  190  A    between atoms: _449  and  _450
REMARK  191  A    between atoms: _453  and  _455
REMARK  192  A    between atoms: _455  and  _456
REMARK  193  A    between atoms: _455  and  _458
REMARK  194  A    between atoms: _458  and  _459
REMARK  195  A    between atoms: _464  and  _466
REMARK  196  A    between atoms: _466  and  _467
REMARK  197  A    between atoms: _466  and  _469
REMARK  198  A    between atoms: _469  and  _470
REMARK  199  A    between atoms: _475  and  _476
REMARK  200  A    between atoms: _478  and  _480
REMARK  201  A    between atoms: _480  and  _481
REMARK  202  A    between atoms: _480  and  _483
REMARK  203  A    between atoms: _485  and  _487
REMARK  204  A    between atoms: _487  and  _488
REMARK  205  A    between atoms: _487  and  _490
REMARK  206  A    between atoms: _490  and  _491
REMARK  207  A    between atoms: _497  and  _499
REMARK  208  A    between atoms: _499  and  _500
REMARK  209  A    between atoms: _499  and  _502
REMARK  210  A    between atoms: _502  and  _503
REMARK  211  A    between atoms: _506  and  _508
REMARK  212  A    between atoms: _508  and  _509
REMARK  213  A    between atoms: _508  and  _511
REMARK  214  A    between atoms: _511  and  _512
REMARK  215  A    between atoms: _515  and  _517
REMARK  216  A    between atoms: _517  and  _518
REMARK  217  A    between atoms: _520  and  _522
REMARK  218  A    between atoms: _522  and  _523
REMARK  219  A    between atoms: _522  and  _525
REMARK  220  A    between atoms: _525  and  _526
REMARK  221  A    between atoms: _529  and  _531
REMARK  222  A    between atoms: _531  and  _532
REMARK  223  A    between atoms: _531  and  _534
REMARK  224  A    between atoms: _534  and  _535
REMARK  225  A    between atoms: _540  and  _541
REMARK  226  A    between atoms: _543  and  _545
REMARK  227  A    between atoms: _545  and  _546
REMARK  228  A    between atoms: _545  and  _548
REMARK  229  A    between atoms: _548  and  _549
REMARK  230  A    between atoms: _554  and  _556
REMARK  231  A    between atoms: _556  and  _557
REMARK  232  A    between atoms: _556  and  _559
REMARK  233  A    between atoms: _559  and  _560
REMARK  234  A    between atoms: _560  and  _561
REMARK  235  A    between atoms: _564  and  _566
REMARK  236  A    between atoms: _566  and  _567
REMARK  237  A    between atoms: _566  and  _569
REMARK  238  A    between atoms: _569  and  _570
REMARK  239  A    between atoms: _575  and  _576
REMARK  240  A    between atoms: _578  and  _580
REMARK  241  A    between atoms: _580  and  _581
REMARK  242  A    between atoms: _580  and  _583
REMARK  243  A    between atoms: _583  and  _584
REMARK                            x       y       z     vdW  Elec       q    Type
REMARK                         _______ _______ _______ _____ _____    ______ ____
ROOT
ATOM      1  CA  GLU A   1      14.988 -37.697  13.413  0.00  0.00    +0.134 C 
ENDROOT
BRANCH   1   2
ATOM      2  N   GLU A   1      13.761 -38.210  12.816  0.00  0.00    -0.239 NA
ATOM      3  H   GLU A   1      12.984 -37.550  12.609  0.00  0.00    +0.142 HD
ENDBRANCH   1   2
BRANCH   1   4
ATOM      4  C   GLU A   1      15.181 -38.383  14.777  0.00  0.00    +0.224 C 
ATOM      5  O   GLU A   1      16.275 -38.846  15.083  0.00  0.00    -0.287 OA
ENDBRANCH   1   4
BRANCH   1   6
ATOM      6  CB  GLU A   1      14.886 -36.175  13.560  0.00  0.00    +0.037 C 
BRANCH   6   7
ATOM      7  CG  GLU A   1      16.006 -35.472  14.330  0.00  0.00    +0.116 C 
BRANCH   7   8
ATOM      8  CD  GLU A   1      15.890 -33.923  14.287  0.00  0.00    +0.365 C 
ATOM      9  OE2 GLU A   1      15.405 -33.273  15.257  0.00  0.00    -0.246 OA
ATOM     10  OE1 GLU A   1      16.280 -33.345  13.241  0.00  0.00    -0.246 OA
ENDBRANCH   7   8
ENDBRANCH   6   7
ENDBRANCH   1   6
TORSDOF 5
REMARK  Name = ../refined-set-2016/4zzy/4zzy_pocket.pdb
REMARK  243 active torsions:
REMARK  status: ('A' for Active; 'I' for Inactive)
REMARK    1  A    between atoms: _1  and  _3
REMARK    2  A    between atoms: _3  and  _4
REMARK    3  A    between atoms: _3  and  _6
REMARK    4  A    between atoms: _6  and  _7
REMARK    5  A    between atoms: _12  and  _13
REMARK    6  A    between atoms: _15  and  _17
REMARK    7  A    between atoms: _17  and  _18
REMARK    8  A    between atoms: _17  and  _20
REMARK    9  A    between atoms: _20  and  _21
REMARK   10  A    between atoms: _24  and  _26
REMARK   11  A    between atoms: _26  and  _27
REMARK   12  A    between atoms: _26  and  _29
REMARK   13  A    between atoms: _29  and  _30
REMARK   14  A    between atoms: _30  and  _31
REMARK   15  A    between atoms: _34  and  _36
REMARK   16  A    between atoms: _36  and  _37
REMARK   17  A    between atoms: _36  and  _39
REMARK   18  A    between atoms: _39  and  _40
REMARK   19  A    between atoms: _40  and  _41
REMARK   20  A    between atoms: _46  and  _48
REMARK   21  A    between atoms: _48  and  _49
REMARK   22  A    between atoms: _48  and  _51
REMARK   23  A    between atoms: _51  and  _52
REMARK   24  A    between atoms: _52  and  _53
REMARK   25  A    between atoms: _53  and  _54
REMARK   26  A    between atoms: _54  and  _55
REMARK   27  A    between atoms: _59  and  _61
REMARK   28  A    between atoms: _61  and  _62
REMARK   29  A    between atoms: _61  and  _64
REMARK   30  A    between atoms: _64  and  _65
REMARK   31  A    between atoms: _65  and  _66
REMARK   32  A    between atoms: _69  and  _71
REMARK   33  A    between atoms: _71  and  _72
REMARK   34  A    between atoms: _71  and  _74
REMARK   35  A    between atoms: _74  and  _75
REMARK   36  A    between atoms: _78  and  _80
REMARK   37  A    between atoms: _80  and  _81
REMARK   38  A    between atoms: _80  and  _83
REMARK   39  A    between atoms: _83  and  _84
REMARK   40  A    between atoms: _86  and  _88
REMARK   41  A    between atoms: _88  and  _89
REMARK   42  A    between atoms: _88  and  _91
REMARK   43  A    between atoms: _91  and  _92
REMARK   44  A    between atoms: _92  and  _93
REMARK   45  A    between atoms: _96  and  _98
REMARK   46  A    between atoms: _98  and  _99
REMARK   47  A    between atoms: _98  and  _101
REMARK   48  A    between atoms: _101  and  _102
REMARK   49  A    between atoms: _102  and  _103
REMARK   50  A    between atoms: _103  and  _104
REMARK   51  A    between atoms: _104  and  _105
REMARK   52  A    between atoms: _109  and  _111
REMARK   53  A    between atoms: _111  and  _112
REMARK   54  A    between atoms: _111  and  _114
REMARK   55  A    between atoms: _114  and  _115
REMARK   56  A    between atoms: _118  and  _120
REMARK   57  A    between atoms: _120  and  _121
REMARK   58  A    between atoms: _120  and  _123
REMARK   59  A    between atoms: _123  and  _124
REMARK   60  A    between atoms: _124  and  _125
REMARK   61  A    between atoms: _130  and  _132
REMARK   62  A    between atoms: _132  and  _133
REMARK   63  A    between atoms: _132  and  _135
REMARK   64  A    between atoms: _135  and  _136
REMARK   65  A    between atoms: _139  and  _141
REMARK   66  A    between atoms: _141  and  _142
REMARK   67  A    between atoms: _141  and  _144
REMARK   68  A    between atoms: _144  and  _145
REMARK   69  A    between atoms: _145  and  _146
REMARK   70  A    between atoms: _149  and  _151
REMARK   71  A    between atoms: _151  and  _152
REMARK   72  A    between atoms: _151  and  _154
REMARK   73  A    between atoms: _154  and  _155
REMARK   74  A    between atoms: _158  and  _160
REMARK   75  A    between atoms: _160  and  _161
REMARK   76  A    between atoms: _160  and  _163
REMARK   77  A    between atoms: _163  and  _164
REMARK   78  A    between atoms: _174  and  _176
REMARK   79  A    between atoms: _176  and  _177
REMARK   80  A    between atoms: _176  and  _179
REMARK   81  A    between atoms: _179  and  _180
REMARK   82  A    between atoms: _185  and  _187
REMARK   83  A    between atoms: _187  and  _188
REMARK   84  A    between atoms: _190  and  _192
REMARK   85  A    between atoms: _192  and  _193
REMARK   86  A    between atoms: _192  and  _195
REMARK   87  A    between atoms: _195  and  _196
REMARK   88  A    between atoms: _198  and  _200
REMARK   89  A    between atoms: _200  and  _201
REMARK   90  A    between atoms: _200  and  _203
REMARK   91  A    between atoms: _203  and  _204
REMARK   92  A    between atoms: _204  and  _205
REMARK   93  A    between atoms: _205  and  _206
REMARK   94  A    between atoms: _215  and  _217
REMARK   95  A    between atoms: _217  and  _218
REMARK   96  A    between atoms: _217  and  _220
REMARK   97  A    between atoms: _220  and  _221
REMARK   98  A    between atoms: _226  and  _228
REMARK   99  A    between atoms: _228  and  _229
REMARK  100  A    between atoms: _228  and  _231
REMARK  101  A    between atoms: _231  and  _232
REMARK  102  A    between atoms: _242  and  _244
REMARK  103  A    between atoms: _244  and  _245
REMARK  104  A    between atoms: _244  and  _247
REMARK  105  A    between atoms: _247  and  _248
REMARK  106  A    between atoms: _251  and  _253
REMARK  107  A    between atoms: _253  and  _254
REMARK  108  A    between atoms: _257  and  _259
REMARK  109  A    between atoms: _259  and  _260
REMARK  110  A    between atoms: _264  and  _265
REMARK  111  A    between atoms: _270  and  _272
REMARK  112  A    between atoms: _272  and  _273
REMARK  113  A    between atoms: _272  and  _275
REMARK  114  A    between atoms: _275  and  _276
REMARK  115  A    between atoms: _279  and  _281
REMARK  116  A    between atoms: _281  and  _282
REMARK  117  A    between atoms: _281  and  _284
REMARK  118  A    between atoms: _284  and  _285
REMARK  119  A    between atoms: _288  and  _290
REMARK  120  A    between atoms: _290  and  _291
REMARK  121  A    between atoms: _293  and  _295
REMARK  122  A    between atoms: _295  and  _296
REMARK  123  A    between atoms: _295  and  _298
REMARK  124  A    between atoms: _298  and  _299
REMARK  125  A    between atoms: _304  and  _305
REMARK  126  A    between atoms: _307  and  _309
REMARK  127  A    between atoms: _309  and  _310
REMARK  128  A    between atoms: _309  and  _312
REMARK  129  A    between atoms: _312  and  _313
REMARK  130  A    between atoms: _313  and  _314
REMARK  131  A    between atoms: _316  and  _318
REMARK  132  A    between atoms: _318  and  _319
REMARK  133  A    between atoms: _318  and  _321
REMARK  134  A    between atoms: _321  and  _322
REMARK  135  A    between atoms: _328  and  _330
REMARK  136  A    between atoms: _330  and  _331
REMARK  137  A    between atoms: _333  and  _335
REMARK  138  A    between atoms: _335  and  _336
REMARK  139  A    between atoms: _335  and  _338
REMARK  140  A    between atoms: _338  and  _339
REMARK  141  A    between atoms: _339  and  _340
REMARK  142  A    between atoms: _340  and  _341
REMARK  143  A    between atoms: _341  and  _342
REMARK  144  A    between atoms: _346  and  _348
REMARK  145  A    between atoms: _348  and  _349
REMARK  146  A    between atoms: _351  and  _353
REMARK  147  A    between atoms: _353  and  _354
REMARK  148  A    between atoms: _353  and  _356
REMARK  149  A    between atoms: _356  and  _357
REMARK  150  A    between atoms: _360  and  _362
REMARK  151  A    between atoms: _362  and  _363
REMARK  152  A    between atoms: _362  and  _365
REMARK  153  A    between atoms: _365  and  _366
REMARK  154  A    between atoms: _371  and  _372
REMARK  155  A    between atoms: _374  and  _376
REMARK  156  A    between atoms: _376  and  _377
REMARK  157  A    between atoms: _376  and  _379
REMARK  158  A    between atoms: _379  and  _380
REMARK  159  A    between atoms: _386  and  _388
REMARK  160  A    between atoms: _388  and  _389
REMARK  161  A    between atoms: _392  and  _394
REMARK  162  A    between atoms: _394  and  _395
REMARK  163  A    between atoms: _394  and  _397
REMARK  164  A    between atoms: _397  and  _398
REMARK  165  A    between atoms: _401  and  _403
REMARK  166  A    between atoms: _403  and  _404
REMARK  167  A    between atoms: _403  and  _406
REMARK  168  A    between atoms: _406  and  _407
REMARK  169  A    between atoms: _407  and  _408
REMARK  170  A    between atoms: _410  and  _412
REMARK  171  A    between atoms: _412  and  _413
REMARK  172  A    between atoms: _412  and  _415
REMARK  173  A    between atoms: _415  and  _416
REMARK  174  A    between atoms: _418  and  _420
REMARK  175  A    between atoms: _420  and  _421
REMARK  176  A    between atoms: _420  and  _423
REMARK  177  A    between atoms: _423  and  _424
REMARK  178  A    between atoms: _426  and  _428
REMARK  179  A    between atoms: _428  and  _429
REMARK  180  A    between atoms: _428  and  _431
REMARK  181  A    between atoms: _431  and  _432
REMARK  182  A    between atoms: _432  and  _433
REMARK  183  A    between atoms: _433  and  _434
REMARK  184  A    between atoms: _434  and  _435
REMARK  185  A    between atoms: _439  and  _441
REMARK  186  A    between atoms: _441  and  _442
REMARK  187  A    between atoms: _441  and  _444
REMARK  188  A    between atoms: _444  and  _445
REMARK  189  A    between atoms: _447  and  _449
REMARK  190  A    between atoms: _449  and  _450
REMARK  191  A    between atoms: _453  and  _455
REMARK  192  A    between atoms: _455  and  _456
REMARK  193  A    between atoms: _455  and  _458
REMARK  194  A    between atoms: _458  and  _459
REMARK  195  A    between atoms: _464  and  _466
REMARK  196  A    between atoms: _466  and  _467
REMARK  197  A    between atoms: _466  and  _469
REMARK  198  A    between atoms: _469  and  _470
REMARK  199  A    between atoms: _475  and  _476
REMARK  200  A    between atoms: _478  and  _480
REMARK  201  A    between atoms: _480  and  _481
REMARK  202  A    between atoms: _480  and  _483
REMARK  203  A    between atoms: _485  and  _487
REMARK  204  A    between atoms: _487  and  _488
REMARK  205  A    between atoms: _487  and  _490
REMARK  206  A    between atoms: _490  and  _491
REMARK  207  A    between atoms: _497  and  _499
REMARK  208  A    between atoms: _499  and  _500
REMARK  209  A    between atoms: _499  and  _502
REMARK  210  A    between atoms: _502  and  _503
REMARK  211  A    between atoms: _506  and  _508
REMARK  212  A    between atoms: _508  and  _509
REMARK  213  A    between atoms: _508  and  _511
REMARK  214  A    between atoms: _511  and  _512
REMARK  215  A    between atoms: _515  and  _517
REMARK  216  A    between atoms: _517  and  _518
REMARK  217  A    between atoms: _520  and  _522
REMARK  218  A    between atoms: _522  and  _523
REMARK  219  A    between atoms: _522  and  _525
REMARK  220  A    between atoms: _525  and  _526
REMARK  221  A    between atoms: _529  and  _531
REMARK  222  A    between atoms: _531  and  _532
REMARK  223  A    between atoms: _531  and  _534
REMARK  224  A    between atoms: _534  and  _535
REMARK  225  A    between atoms: _540  and  _541
REMARK  226  A    between atoms: _543  and  _545
REMARK  227  A    between atoms: _545  and  _546
REMARK  228  A    between atoms: _545  and  _548
REMARK  229  A    between atoms: _548  and  _549
REMARK  230  A    between atoms: _554  and  _556
REMARK  231  A    between atoms: _556  and  _557
REMARK  232  A    between atoms: _556  and  _559
REMARK  233  A    between atoms: _559  and  _560
REMARK  234  A    between atoms: _560  and  _561
REMARK  235  A    between atoms: _564  and  _566
REMARK  236  A    between atoms: _566  and  _567
REMARK  237  A    between atoms: _566  and  _569
REMARK  238  A    between atoms: _569  and  _570
REMARK  239  A    between atoms: _575  and  _576
REMARK  240  A    between atoms: _578  and  _580
REMARK  241  A    between atoms: _580  and  _581
REMARK  242  A    between atoms: _580  and  _583
REMARK  243  A    between atoms: _583  and  _584
REMARK                            x       y       z     vdW  Elec       q    Type
REMARK                         _______ _______ _______ _____ _____    ______ ____
ROOT
ATOM      1  C   SER A   5      17.715 -33.070   4.326  0.00  0.00    +0.243 C 
ATOM      2  O   SER A   5      17.083 -32.030   4.148  0.00  0.00    -0.273 OA
ATOM      3  N   GLU A   6      17.882 -33.973   3.361  0.00  0.00    -0.297 N 
ATOM      4  H   GLU A   6      18.441 -34.826   3.563  0.00  0.00    +0.150 HD
ENDROOT
BRANCH   3   5
ATOM      5  CA  GLU A   6      17.302 -33.804   2.017  0.00  0.00    +0.149 C 
BRANCH   5   6
ATOM      6  C   GLU A   6      15.767 -33.611   2.093  0.00  0.00    +0.241 C 
ATOM      7  N   LYS A   7      15.105 -34.467   2.864  0.00  0.00    -0.297 N 
ATOM      8  H   LYS A   7      15.617 -35.265   3.291  0.00  0.00    +0.150 HD
ATOM      9  O   GLU A   6      15.202 -32.668   1.511  0.00  0.00    -0.273 OA
BRANCH   7  10
ATOM     10  CA  LYS A   7      13.668 -34.314   3.129  0.00  0.00    +0.149 C 
BRANCH  10  11
ATOM     11  C   LYS A   7      13.271 -33.004   3.762  0.00  0.00    +0.241 C 
ATOM     12  N   ILE A   8      14.088 -32.545   4.699  0.00  0.00    -0.297 N 
ATOM     13  H   ILE A   8      14.938 -33.093   4.943  0.00  0.00    +0.150 HD
ATOM     14  O   LYS A   7      12.226 -32.421   3.411  0.00  0.00    -0.273 OA
BRANCH  12  15
ATOM     15  CA  ILE A   8      13.828 -31.293   5.397  0.00  0.00    +0.149 C 
BRANCH  15  16
ATOM     16  C   ILE A   8      13.971 -30.152   4.414  0.00  0.00    +0.241 C 
ATOM     17  O   ILE A   8      13.128 -29.293   4.330  0.00  0.00    -0.273 OA
ATOM     18  N   GLN A   9      14.998 -30.178   3.600  0.00  0.00    -0.297 N 
ATOM     19  H   GLN A   9      15.718 -30.924   3.680  0.00  0.00    +0.150 HD
BRANCH  18  20
ATOM     20  CA  GLN A   9      15.113 -29.131   2.569  0.00  0.00    +0.149 C 
BRANCH  20  21
ATOM     21  C   GLN A   9      14.001 -29.206   1.493  0.00  0.00    +0.241 C 
ATOM     22  N   LEU A  10      13.625 -30.420   1.092  0.00  0.00    -0.298 N 
ATOM     23  H   LEU A  10      14.149 -31.247   1.442  0.00  0.00    +0.150 HD
ATOM     24  O   GLN A   9      13.511 -28.192   1.040  0.00  0.00    -0.273 OA
BRANCH  22  25
ATOM     25  CA  LEU A  10      12.529 -30.627   0.199  0.00  0.00    +0.137 C 
BRANCH  25  26
ATOM     26  C   LEU A  10      11.275 -29.838   0.640  0.00  0.00    +0.227 C 
ATOM     27  O   LEU A  10      10.664 -29.116  -0.178  0.00  0.00    -0.286 OA
ENDBRANCH  25  26
BRANCH  25  28
ATOM     28  CB  LEU A  10      12.217 -32.113   0.118  0.00  0.00    +0.028 C 
BRANCH  28  29
ATOM     29  CG  LEU A  10      10.989 -32.414  -0.756  0.00  0.00    +0.002 C 
ATOM     30  CD2 LEU A  10      10.743 -33.918  -0.880  0.00  0.00    +0.000 C 
ATOM     31  CD1 LEU A  10      11.146 -31.776  -2.130  0.00  0.00    +0.000 C 
ENDBRANCH  28  29
ENDBRANCH  25  28
ENDBRANCH  22  25
ENDBRANCH  20  21
BRANCH  20  32
ATOM     32  CB  GLN A   9      16.517 -29.197   1.959  0.00  0.00    +0.039 C 
BRANCH  32  33
ATOM     33  CG  GLN A   9      17.569 -28.935   3.059  0.00  0.00    +0.087 C 
BRANCH  33  34
ATOM     34  CD  GLN A   9      18.995 -28.924   2.557  0.00  0.00    +0.219 C 
ATOM     35  NE2 GLN A   9      19.760 -27.932   2.997  0.00  0.00    -0.329 N 
ATOM     36 HE21 GLN A   9      19.371 -27.230   3.659  0.00  0.00    +0.145 HD
ATOM     37 HE22 GLN A   9      20.748 -27.857   2.680  0.00  0.00    +0.145 HD
ATOM     38  OE1 GLN A   9      19.408 -29.786   1.769  0.00  0.00    -0.275 OA
ENDBRANCH  33  34
ENDBRANCH  32  33
ENDBRANCH  20  32
ENDBRANCH  18  20
ENDBRANCH  15  16
BRANCH  15  39
ATOM     39  CB  ILE A   8      14.709 -31.138   6.674  0.00  0.00    +0.027 C 
ATOM     40  CG2 ILE A   8      14.576 -29.748   7.272  0.00  0.00    +0.002 C 
BRANCH  39  41
ATOM     41  CG1 ILE A   8      14.272 -32.135   7.743  0.00  0.00    +0.002 C 
ATOM     42  CD1 ILE A   8      15.261 -32.255   8.923  0.00  0.00    +0.000 C 
ENDBRANCH  39  41
ENDBRANCH  15  39
ENDBRANCH  12  15
ENDBRANCH  10  11
BRANCH  10  43
ATOM     43  CB  LYS A   7      13.135 -35.499   3.937  0.00  0.00    +0.029 C 
BRANCH  43  44
ATOM     44  CG  LYS A   7      13.321 -36.815   3.193  0.00  0.00    +0.000 C 
BRANCH  44  45
ATOM     45  CD  LYS A   7      12.717 -36.679   1.795  0.00  0.00    -0.024 C 
BRANCH  45  46
ATOM     46  CE  LYS A   7      12.323 -37.993   1.136  0.00  0.00    -0.086 C 
BRANCH  46  47
ATOM     47  NZ  LYS A   7      12.418 -37.696  -0.333  0.00  0.00    +0.380 N 
ATOM     48  HZ1 LYS A   7      13.391 -37.414  -0.566  0.00  0.00    -0.089 HD
ATOM     49  HZ2 LYS A   7      11.765 -36.923  -0.572  0.00  0.00    -0.089 HD
ATOM     50  HZ3 LYS A   7      12.163 -38.547  -0.875  0.00  0.00    -0.089 HD
ENDBRANCH  46  47
ENDBRANCH  45  46
ENDBRANCH  44  45
ENDBRANCH  43  44
ENDBRANCH  10  43
ENDBRANCH   7  10
ENDBRANCH   5   6
BRANCH   5  51
ATOM     51  CB  GLU A   6      17.721 -34.986   1.110  0.00  0.00    +0.041 C 
BRANCH  51  52
ATOM     52  CG  GLU A   6      17.285 -34.860  -0.356  0.00  0.00    +0.116 C 
BRANCH  52  53
ATOM     53  CD  GLU A   6      17.319 -36.188  -1.148  0.00  0.00    +0.365 C 
ATOM     54  OE2 GLU A   6      16.225 -36.761  -1.440  0.00  0.00    -0.246 OA
ATOM     55  OE1 GLU A   6      18.437 -36.644  -1.501  0.00  0.00    -0.246 OA
ENDBRANCH  52  53
ENDBRANCH  51  52
ENDBRANCH   5  51
ENDBRANCH   3   5
BRANCH   1  56
ATOM     56  CA  SER A   5      18.241 -33.433   5.742  0.00  0.00    +0.178 C 
BRANCH  56  58
ATOM     57  C   LEU A   4      16.831 -35.339   6.053  0.00  0.00    +0.241 C 
ATOM     58  N   SER A   5      18.041 -34.815   5.995  0.00  0.00    -0.295 N 
ATOM     59  H   SER A   5      18.868 -35.430   6.138  0.00  0.00    +0.150 HD
ATOM     60  O   LEU A   4      15.812 -34.720   5.703  0.00  0.00    -0.273 OA
BRANCH  57  61
ATOM     61  CA  LEU A   4      16.777 -36.780   6.562  0.00  0.00    +0.149 C 
BRANCH  61  63
ATOM     62  C   GLU A   3      17.578 -37.656   4.461  0.00  0.00    +0.241 C 
ATOM     63  N   LEU A   4      17.685 -37.596   5.786  0.00  0.00    -0.297 N 
ATOM     64  H   LEU A   4      18.428 -38.141   6.268  0.00  0.00    +0.150 HD
ATOM     65  O   GLU A   3      16.679 -37.118   3.866  0.00  0.00    -0.273 OA
BRANCH  62  66
ATOM     66  CA  GLU A   3      18.655 -38.422   3.718  0.00  0.00    +0.149 C 
BRANCH  66  68
ATOM     67  C   LYS A   2      20.577 -36.984   4.125  0.00  0.00    +0.241 C 
ATOM     68  N   GLU A   3      19.958 -38.151   4.320  0.00  0.00    -0.297 N 
ATOM     69  H   GLU A   3      20.411 -38.878   4.910  0.00  0.00    +0.150 HD
ATOM     70  O   LYS A   2      20.104 -36.075   3.445  0.00  0.00    -0.273 OA
BRANCH  67  71
ATOM     71  CA  LYS A   2      21.973 -36.819   4.741  0.00  0.00    +0.149 C 
BRANCH  71  74
ATOM     72  C   GLN A   1      21.313 -36.881   7.059  0.00  0.00    +0.238 C 
ATOM     73  O   GLN A   1      20.522 -35.982   6.883  0.00  0.00    -0.274 OA
ATOM     74  N   LYS A   2      22.062 -37.383   6.085  0.00  0.00    -0.297 N 
ATOM     75  H   LYS A   2      22.709 -38.174   6.278  0.00  0.00    +0.150 HD
BRANCH  72  76
ATOM     76  CA  GLN A   1      21.411 -37.524   8.417  0.00  0.00    +0.145 C 
BRANCH  76  77
ATOM     77  N   GLN A   1      21.566 -38.947   8.271  0.00  0.00    -0.238 NA
ATOM     78  H   GLN A   1      22.464 -39.381   8.564  0.00  0.00    +0.142 HD
ENDBRANCH  76  77
BRANCH  76  79
ATOM     79  CB  GLN A   1      22.546 -36.919   9.245  0.00  0.00    +0.036 C 
BRANCH  79  80
ATOM     80  CG  GLN A   1      22.301 -37.004  10.750  0.00  0.00    +0.087 C 
BRANCH  80  81
ATOM     81  CD  GLN A   1      21.150 -36.122  11.220  0.00  0.00    +0.219 C 
ATOM     82  NE2 GLN A   1      20.438 -36.575  12.252  0.00  0.00    -0.329 N 
ATOM     83 HE21 GLN A   1      20.669 -37.494  12.680  0.00  0.00    +0.145 HD
ATOM     84 HE22 GLN A   1      19.651 -36.009  12.629  0.00  0.00    +0.145 HD
ATOM     85  OE1 GLN A   1      20.918 -35.036  10.674  0.00  0.00    -0.275 OA
ENDBRANCH  80  81
ENDBRANCH  79  80
ENDBRANCH  76  79
ENDBRANCH  72  76
ENDBRANCH  71  74
BRANCH  71  86
ATOM     86  CB  LYS A   2      23.014 -37.431   3.785  0.00  0.00    +0.029 C 
BRANCH  86  87
ATOM     87  CG  LYS A   2      22.939 -36.842   2.364  0.00  0.00    +0.000 C 
BRANCH  87  88
ATOM     88  CD  LYS A   2      24.241 -36.972   1.566  0.00  0.00    -0.024 C 
BRANCH  88  89
ATOM     89  CE  LYS A   2      25.384 -36.154   2.183  0.00  0.00    -0.086 C 
BRANCH  89  90
ATOM     90  NZ  LYS A   2      26.734 -36.756   1.950  0.00  0.00    +0.380 N 
ATOM     91  HZ1 LYS A   2      27.460 -36.156   2.391  0.00  0.00    -0.089 HD
ATOM     92  HZ2 LYS A   2      26.765 -37.707   2.370  0.00  0.00    -0.089 HD
ATOM     93  HZ3 LYS A   2      26.911 -36.822   0.927  0.00  0.00    -0.089 HD
ENDBRANCH  89  90
ENDBRANCH  88  89
ENDBRANCH  87  88
ENDBRANCH  86  87
ENDBRANCH  71  86
ENDBRANCH  67  71
ENDBRANCH  66  68
BRANCH  66  94
ATOM     94  CB  GLU A   3      18.316 -39.929   3.644  0.00  0.00    +0.041 C 
BRANCH  94  95
ATOM     95  CG  GLU A   3      19.374 -40.772   2.937  0.00  0.00    +0.116 C 
BRANCH  95  96
ATOM     96  CD  GLU A   3      19.336 -42.287   3.282  0.00  0.00    +0.365 C 
ATOM     97  OE2 GLU A   3      18.886 -42.688   4.385  0.00  0.00    -0.246 OA
ATOM     98  OE1 GLU A   3      19.761 -43.096   2.424  0.00  0.00    -0.246 OA
ENDBRANCH  95  96
ENDBRANCH  94  95
ENDBRANCH  66  94
ENDBRANCH  62  66
ENDBRANCH  61  63
BRANCH  61  99
ATOM     99  CB  LEU A   4      17.178 -36.847   8.032  0.00  0.00    +0.029 C 
BRANCH  99 100
ATOM    100  CG  LEU A   4      16.401 -35.998   9.018  0.00  0.00    +0.002 C 
ATOM    101  CD2 LEU A   4      16.771 -36.365  10.447  0.00  0.00    +0.000 C 
ATOM    102  CD1 LEU A   4      14.900 -36.075   8.778  0.00  0.00    +0.000 C 
ENDBRANCH  99 100
ENDBRANCH  61  99
ENDBRANCH  57  61
ENDBRANCH  56  58
BRANCH  56 103
ATOM    103  CB  SER A   5      19.723 -33.112   5.974  0.00  0.00    +0.166 C 
BRANCH 103 104
ATOM    104  OG  SER A   5      20.172 -32.153   5.019  0.00  0.00    -0.380 OA
ATOM    105  H   SER A   5      21.129 -31.954   5.178  0.00  0.00    +0.211 HD
ENDBRANCH 103 104
ENDBRANCH  56 103
ENDBRANCH   1  56
TORSDOF 50
REMARK  Name = ../refined-set-2016/4zzy/4zzy_pocket.pdb
REMARK  243 active torsions:
REMARK  status: ('A' for Active; 'I' for Inactive)
REMARK    1  A    between atoms: _1  and  _3
REMARK    2  A    between atoms: _3  and  _4
REMARK    3  A    between atoms: _3  and  _6
REMARK    4  A    between atoms: _6  and  _7
REMARK    5  A    between atoms: _12  and  _13
REMARK    6  A    between atoms: _15  and  _17
REMARK    7  A    between atoms: _17  and  _18
REMARK    8  A    between atoms: _17  and  _20
REMARK    9  A    between atoms: _20  and  _21
REMARK   10  A    between atoms: _24  and  _26
REMARK   11  A    between atoms: _26  and  _27
REMARK   12  A    between atoms: _26  and  _29
REMARK   13  A    between atoms: _29  and  _30
REMARK   14  A    between atoms: _30  and  _31
REMARK   15  A    between atoms: _34  and  _36
REMARK   16  A    between atoms: _36  and  _37
REMARK   17  A    between atoms: _36  and  _39
REMARK   18  A    between atoms: _39  and  _40
REMARK   19  A    between atoms: _40  and  _41
REMARK   20  A    between atoms: _46  and  _48
REMARK   21  A    between atoms: _48  and  _49
REMARK   22  A    between atoms: _48  and  _51
REMARK   23  A    between atoms: _51  and  _52
REMARK   24  A    between atoms: _52  and  _53
REMARK   25  A    between atoms: _53  and  _54
REMARK   26  A    between atoms: _54  and  _55
REMARK   27  A    between atoms: _59  and  _61
REMARK   28  A    between atoms: _61  and  _62
REMARK   29  A    between atoms: _61  and  _64
REMARK   30  A    between atoms: _64  and  _65
REMARK   31  A    between atoms: _65  and  _66
REMARK   32  A    between atoms: _69  and  _71
REMARK   33  A    between atoms: _71  and  _72
REMARK   34  A    between atoms: _71  and  _74
REMARK   35  A    between atoms: _74  and  _75
REMARK   36  A    between atoms: _78  and  _80
REMARK   37  A    between atoms: _80  and  _81
REMARK   38  A    between atoms: _80  and  _83
REMARK   39  A    between atoms: _83  and  _84
REMARK   40  A    between atoms: _86  and  _88
REMARK   41  A    between atoms: _88  and  _89
REMARK   42  A    between atoms: _88  and  _91
REMARK   43  A    between atoms: _91  and  _92
REMARK   44  A    between atoms: _92  and  _93
REMARK   45  A    between atoms: _96  and  _98
REMARK   46  A    between atoms: _98  and  _99
REMARK   47  A    between atoms: _98  and  _101
REMARK   48  A    between atoms: _101  and  _102
REMARK   49  A    between atoms: _102  and  _103
REMARK   50  A    between atoms: _103  and  _104
REMARK   51  A    between atoms: _104  and  _105
REMARK   52  A    between atoms: _109  and  _111
REMARK   53  A    between atoms: _111  and  _112
REMARK   54  A    between atoms: _111  and  _114
REMARK   55  A    between atoms: _114  and  _115
REMARK   56  A    between atoms: _118  and  _120
REMARK   57  A    between atoms: _120  and  _121
REMARK   58  A    between atoms: _120  and  _123
REMARK   59  A    between atoms: _123  and  _124
REMARK   60  A    between atoms: _124  and  _125
REMARK   61  A    between atoms: _130  and  _132
REMARK   62  A    between atoms: _132  and  _133
REMARK   63  A    between atoms: _132  and  _135
REMARK   64  A    between atoms: _135  and  _136
REMARK   65  A    between atoms: _139  and  _141
REMARK   66  A    between atoms: _141  and  _142
REMARK   67  A    between atoms: _141  and  _144
REMARK   68  A    between atoms: _144  and  _145
REMARK   69  A    between atoms: _145  and  _146
REMARK   70  A    between atoms: _149  and  _151
REMARK   71  A    between atoms: _151  and  _152
REMARK   72  A    between atoms: _151  and  _154
REMARK   73  A    between atoms: _154  and  _155
REMARK   74  A    between atoms: _158  and  _160
REMARK   75  A    between atoms: _160  and  _161
REMARK   76  A    between atoms: _160  and  _163
REMARK   77  A    between atoms: _163  and  _164
REMARK   78  A    between atoms: _174  and  _176
REMARK   79  A    between atoms: _176  and  _177
REMARK   80  A    between atoms: _176  and  _179
REMARK   81  A    between atoms: _179  and  _180
REMARK   82  A    between atoms: _185  and  _187
REMARK   83  A    between atoms: _187  and  _188
REMARK   84  A    between atoms: _190  and  _192
REMARK   85  A    between atoms: _192  and  _193
REMARK   86  A    between atoms: _192  and  _195
REMARK   87  A    between atoms: _195  and  _196
REMARK   88  A    between atoms: _198  and  _200
REMARK   89  A    between atoms: _200  and  _201
REMARK   90  A    between atoms: _200  and  _203
REMARK   91  A    between atoms: _203  and  _204
REMARK   92  A    between atoms: _204  and  _205
REMARK   93  A    between atoms: _205  and  _206
REMARK   94  A    between atoms: _215  and  _217
REMARK   95  A    between atoms: _217  and  _218
REMARK   96  A    between atoms: _217  and  _220
REMARK   97  A    between atoms: _220  and  _221
REMARK   98  A    between atoms: _226  and  _228
REMARK   99  A    between atoms: _228  and  _229
REMARK  100  A    between atoms: _228  and  _231
REMARK  101  A    between atoms: _231  and  _232
REMARK  102  A    between atoms: _242  and  _244
REMARK  103  A    between atoms: _244  and  _245
REMARK  104  A    between atoms: _244  and  _247
REMARK  105  A    between atoms: _247  and  _248
REMARK  106  A    between atoms: _251  and  _253
REMARK  107  A    between atoms: _253  and  _254
REMARK  108  A    between atoms: _257  and  _259
REMARK  109  A    between atoms: _259  and  _260
REMARK  110  A    between atoms: _264  and  _265
REMARK  111  A    between atoms: _270  and  _272
REMARK  112  A    between atoms: _272  and  _273
REMARK  113  A    between atoms: _272  and  _275
REMARK  114  A    between atoms: _275  and  _276
REMARK  115  A    between atoms: _279  and  _281
REMARK  116  A    between atoms: _281  and  _282
REMARK  117  A    between atoms: _281  and  _284
REMARK  118  A    between atoms: _284  and  _285
REMARK  119  A    between atoms: _288  and  _290
REMARK  120  A    between atoms: _290  and  _291
REMARK  121  A    between atoms: _293  and  _295
REMARK  122  A    between atoms: _295  and  _296
REMARK  123  A    between atoms: _295  and  _298
REMARK  124  A    between atoms: _298  and  _299
REMARK  125  A    between atoms: _304  and  _305
REMARK  126  A    between atoms: _307  and  _309
REMARK  127  A    between atoms: _309  and  _310
REMARK  128  A    between atoms: _309  and  _312
REMARK  129  A    between atoms: _312  and  _313
REMARK  130  A    between atoms: _313  and  _314
REMARK  131  A    between atoms: _316  and  _318
REMARK  132  A    between atoms: _318  and  _319
REMARK  133  A    between atoms: _318  and  _321
REMARK  134  A    between atoms: _321  and  _322
REMARK  135  A    between atoms: _328  and  _330
REMARK  136  A    between atoms: _330  and  _331
REMARK  137  A    between atoms: _333  and  _335
REMARK  138  A    between atoms: _335  and  _336
REMARK  139  A    between atoms: _335  and  _338
REMARK  140  A    between atoms: _338  and  _339
REMARK  141  A    between atoms: _339  and  _340
REMARK  142  A    between atoms: _340  and  _341
REMARK  143  A    between atoms: _341  and  _342
REMARK  144  A    between atoms: _346  and  _348
REMARK  145  A    between atoms: _348  and  _349
REMARK  146  A    between atoms: _351  and  _353
REMARK  147  A    between atoms: _353  and  _354
REMARK  148  A    between atoms: _353  and  _356
REMARK  149  A    between atoms: _356  and  _357
REMARK  150  A    between atoms: _360  and  _362
REMARK  151  A    between atoms: _362  and  _363
REMARK  152  A    between atoms: _362  and  _365
REMARK  153  A    between atoms: _365  and  _366
REMARK  154  A    between atoms: _371  and  _372
REMARK  155  A    between atoms: _374  and  _376
REMARK  156  A    between atoms: _376  and  _377
REMARK  157  A    between atoms: _376  and  _379
REMARK  158  A    between atoms: _379  and  _380
REMARK  159  A    between atoms: _386  and  _388
REMARK  160  A    between atoms: _388  and  _389
REMARK  161  A    between atoms: _392  and  _394
REMARK  162  A    between atoms: _394  and  _395
REMARK  163  A    between atoms: _394  and  _397
REMARK  164  A    between atoms: _397  and  _398
REMARK  165  A    between atoms: _401  and  _403
REMARK  166  A    between atoms: _403  and  _404
REMARK  167  A    between atoms: _403  and  _406
REMARK  168  A    between atoms: _406  and  _407
REMARK  169  A    between atoms: _407  and  _408
REMARK  170  A    between atoms: _410  and  _412
REMARK  171  A    between atoms: _412  and  _413
REMARK  172  A    between atoms: _412  and  _415
REMARK  173  A    between atoms: _415  and  _416
REMARK  174  A    between atoms: _418  and  _420
REMARK  175  A    between atoms: _420  and  _421
REMARK  176  A    between atoms: _420  and  _423
REMARK  177  A    between atoms: _423  and  _424
REMARK  178  A    between atoms: _426  and  _428
REMARK  179  A    between atoms: _428  and  _429
REMARK  180  A    between atoms: _428  and  _431
REMARK  181  A    between atoms: _431  and  _432
REMARK  182  A    between atoms: _432  and  _433
REMARK  183  A    between atoms: _433  and  _434
REMARK  184  A    between atoms: _434  and  _435
REMARK  185  A    between atoms: _439  and  _441
REMARK  186  A    between atoms: _441  and  _442
REMARK  187  A    between atoms: _441  and  _444
REMARK  188  A    between atoms: _444  and  _445
REMARK  189  A    between atoms: _447  and  _449
REMARK  190  A    between atoms: _449  and  _450
REMARK  191  A    between atoms: _453  and  _455
REMARK  192  A    between atoms: _455  and  _456
REMARK  193  A    between atoms: _455  and  _458
REMARK  194  A    between atoms: _458  and  _459
REMARK  195  A    between atoms: _464  and  _466
REMARK  196  A    between atoms: _466  and  _467
REMARK  197  A    between atoms: _466  and  _469
REMARK  198  A    between atoms: _469  and  _470
REMARK  199  A    between atoms: _475  and  _476
REMARK  200  A    between atoms: _478  and  _480
REMARK  201  A    between atoms: _480  and  _481
REMARK  202  A    between atoms: _480  and  _483
REMARK  203  A    between atoms: _485  and  _487
REMARK  204  A    between atoms: _487  and  _488
REMARK  205  A    between atoms: _487  and  _490
REMARK  206  A    between atoms: _490  and  _491
REMARK  207  A    between atoms: _497  and  _499
REMARK  208  A    between atoms: _499  and  _500
REMARK  209  A    between atoms: _499  and  _502
REMARK  210  A    between atoms: _502  and  _503
REMARK  211  A    between atoms: _506  and  _508
REMARK  212  A    between atoms: _508  and  _509
REMARK  213  A    between atoms: _508  and  _511
REMARK  214  A    between atoms: _511  and  _512
REMARK  215  A    between atoms: _515  and  _517
REMARK  216  A    between atoms: _517  and  _518
REMARK  217  A    between atoms: _520  and  _522
REMARK  218  A    between atoms: _522  and  _523
REMARK  219  A    between atoms: _522  and  _525
REMARK  220  A    between atoms: _525  and  _526
REMARK  221  A    between atoms: _529  and  _531
REMARK  222  A    between atoms: _531  and  _532
REMARK  223  A    between atoms: _531  and  _534
REMARK  224  A    between atoms: _534  and  _535
REMARK  225  A    between atoms: _540  and  _541
REMARK  226  A    between atoms: _543  and  _545
REMARK  227  A    between atoms: _545  and  _546
REMARK  228  A    between atoms: _545  and  _548
REMARK  229  A    between atoms: _548  and  _549
REMARK  230  A    between atoms: _554  and  _556
REMARK  231  A    between atoms: _556  and  _557
REMARK  232  A    between atoms: _556  and  _559
REMARK  233  A    between atoms: _559  and  _560
REMARK  234  A    between atoms: _560  and  _561
REMARK  235  A    between atoms: _564  and  _566
REMARK  236  A    between atoms: _566  and  _567
REMARK  237  A    between atoms: _566  and  _569
REMARK  238  A    between atoms: _569  and  _570
REMARK  239  A    between atoms: _575  and  _576
REMARK  240  A    between atoms: _578  and  _580
REMARK  241  A    between atoms: _580  and  _581
REMARK  242  A    between atoms: _580  and  _583
REMARK  243  A    between atoms: _583  and  _584
REMARK                            x       y       z     vdW  Elec       q    Type
REMARK                         _______ _______ _______ _____ _____    ______ ____
ROOT
ATOM      1  CA  GLU A   1      10.996 -25.812   2.416  0.00  0.00    +0.134 C 
ENDROOT
BRANCH   1   2
ATOM      2  N   GLU A   1      10.847 -27.245   2.588  0.00  0.00    -0.239 NA
ATOM      3  H   GLU A   1      11.656 -27.806   2.923  0.00  0.00    +0.142 HD
ENDBRANCH   1   2
BRANCH   1   4
ATOM      4  C   GLU A   1      10.909 -25.416   0.929  0.00  0.00    +0.224 C 
ATOM      5  O   GLU A   1      10.275 -24.414   0.592  0.00  0.00    -0.287 OA
ENDBRANCH   1   4
BRANCH   1   6
ATOM      6  CB  GLU A   1      12.374 -25.434   2.947  0.00  0.00    +0.037 C 
BRANCH   6   7
ATOM      7  CG  GLU A   1      12.560 -23.990   3.378  0.00  0.00    +0.116 C 
BRANCH   7   8
ATOM      8  CD  GLU A   1      14.025 -23.730   3.807  0.00  0.00    +0.365 C 
ATOM      9  OE2 GLU A   1      14.506 -24.295   4.845  0.00  0.00    -0.246 OA
ATOM     10  OE1 GLU A   1      14.701 -22.984   3.069  0.00  0.00    -0.246 OA
ENDBRANCH   7   8
ENDBRANCH   6   7
ENDBRANCH   1   6
TORSDOF 5
REMARK  Name = ../refined-set-2016/4zzy/4zzy_pocket.pdb
REMARK  243 active torsions:
REMARK  status: ('A' for Active; 'I' for Inactive)
REMARK    1  A    between atoms: _1  and  _3
REMARK    2  A    between atoms: _3  and  _4
REMARK    3  A    between atoms: _3  and  _6
REMARK    4  A    between atoms: _6  and  _7
REMARK    5  A    between atoms: _12  and  _13
REMARK    6  A    between atoms: _15  and  _17
REMARK    7  A    between atoms: _17  and  _18
REMARK    8  A    between atoms: _17  and  _20
REMARK    9  A    between atoms: _20  and  _21
REMARK   10  A    between atoms: _24  and  _26
REMARK   11  A    between atoms: _26  and  _27
REMARK   12  A    between atoms: _26  and  _29
REMARK   13  A    between atoms: _29  and  _30
REMARK   14  A    between atoms: _30  and  _31
REMARK   15  A    between atoms: _34  and  _36
REMARK   16  A    between atoms: _36  and  _37
REMARK   17  A    between atoms: _36  and  _39
REMARK   18  A    between atoms: _39  and  _40
REMARK   19  A    between atoms: _40  and  _41
REMARK   20  A    between atoms: _46  and  _48
REMARK   21  A    between atoms: _48  and  _49
REMARK   22  A    between atoms: _48  and  _51
REMARK   23  A    between atoms: _51  and  _52
REMARK   24  A    between atoms: _52  and  _53
REMARK   25  A    between atoms: _53  and  _54
REMARK   26  A    between atoms: _54  and  _55
REMARK   27  A    between atoms: _59  and  _61
REMARK   28  A    between atoms: _61  and  _62
REMARK   29  A    between atoms: _61  and  _64
REMARK   30  A    between atoms: _64  and  _65
REMARK   31  A    between atoms: _65  and  _66
REMARK   32  A    between atoms: _69  and  _71
REMARK   33  A    between atoms: _71  and  _72
REMARK   34  A    between atoms: _71  and  _74
REMARK   35  A    between atoms: _74  and  _75
REMARK   36  A    between atoms: _78  and  _80
REMARK   37  A    between atoms: _80  and  _81
REMARK   38  A    between atoms: _80  and  _83
REMARK   39  A    between atoms: _83  and  _84
REMARK   40  A    between atoms: _86  and  _88
REMARK   41  A    between atoms: _88  and  _89
REMARK   42  A    between atoms: _88  and  _91
REMARK   43  A    between atoms: _91  and  _92
REMARK   44  A    between atoms: _92  and  _93
REMARK   45  A    between atoms: _96  and  _98
REMARK   46  A    between atoms: _98  and  _99
REMARK   47  A    between atoms: _98  and  _101
REMARK   48  A    between atoms: _101  and  _102
REMARK   49  A    between atoms: _102  and  _103
REMARK   50  A    between atoms: _103  and  _104
REMARK   51  A    between atoms: _104  and  _105
REMARK   52  A    between atoms: _109  and  _111
REMARK   53  A    between atoms: _111  and  _112
REMARK   54  A    between atoms: _111  and  _114
REMARK   55  A    between atoms: _114  and  _115
REMARK   56  A    between atoms: _118  and  _120
REMARK   57  A    between atoms: _120  and  _121
REMARK   58  A    between atoms: _120  and  _123
REMARK   59  A    between atoms: _123  and  _124
REMARK   60  A    between atoms: _124  and  _125
REMARK   61  A    between atoms: _130  and  _132
REMARK   62  A    between atoms: _132  and  _133
REMARK   63  A    between atoms: _132  and  _135
REMARK   64  A    between atoms: _135  and  _136
REMARK   65  A    between atoms: _139  and  _141
REMARK   66  A    between atoms: _141  and  _142
REMARK   67  A    between atoms: _141  and  _144
REMARK   68  A    between atoms: _144  and  _145
REMARK   69  A    between atoms: _145  and  _146
REMARK   70  A    between atoms: _149  and  _151
REMARK   71  A    between atoms: _151  and  _152
REMARK   72  A    between atoms: _151  and  _154
REMARK   73  A    between atoms: _154  and  _155
REMARK   74  A    between atoms: _158  and  _160
REMARK   75  A    between atoms: _160  and  _161
REMARK   76  A    between atoms: _160  and  _163
REMARK   77  A    between atoms: _163  and  _164
REMARK   78  A    between atoms: _174  and  _176
REMARK   79  A    between atoms: _176  and  _177
REMARK   80  A    between atoms: _176  and  _179
REMARK   81  A    between atoms: _179  and  _180
REMARK   82  A    between atoms: _185  and  _187
REMARK   83  A    between atoms: _187  and  _188
REMARK   84  A    between atoms: _190  and  _192
REMARK   85  A    between atoms: _192  and  _193
REMARK   86  A    between atoms: _192  and  _195
REMARK   87  A    between atoms: _195  and  _196
REMARK   88  A    between atoms: _198  and  _200
REMARK   89  A    between atoms: _200  and  _201
REMARK   90  A    between atoms: _200  and  _203
REMARK   91  A    between atoms: _203  and  _204
REMARK   92  A    between atoms: _204  and  _205
REMARK   93  A    between atoms: _205  and  _206
REMARK   94  A    between atoms: _215  and  _217
REMARK   95  A    between atoms: _217  and  _218
REMARK   96  A    between atoms: _217  and  _220
REMARK   97  A    between atoms: _220  and  _221
REMARK   98  A    between atoms: _226  and  _228
REMARK   99  A    between atoms: _228  and  _229
REMARK  100  A    between atoms: _228  and  _231
REMARK  101  A    between atoms: _231  and  _232
REMARK  102  A    between atoms: _242  and  _244
REMARK  103  A    between atoms: _244  and  _245
REMARK  104  A    between atoms: _244  and  _247
REMARK  105  A    between atoms: _247  and  _248
REMARK  106  A    between atoms: _251  and  _253
REMARK  107  A    between atoms: _253  and  _254
REMARK  108  A    between atoms: _257  and  _259
REMARK  109  A    between atoms: _259  and  _260
REMARK  110  A    between atoms: _264  and  _265
REMARK  111  A    between atoms: _270  and  _272
REMARK  112  A    between atoms: _272  and  _273
REMARK  113  A    between atoms: _272  and  _275
REMARK  114  A    between atoms: _275  and  _276
REMARK  115  A    between atoms: _279  and  _281
REMARK  116  A    between atoms: _281  and  _282
REMARK  117  A    between atoms: _281  and  _284
REMARK  118  A    between atoms: _284  and  _285
REMARK  119  A    between atoms: _288  and  _290
REMARK  120  A    between atoms: _290  and  _291
REMARK  121  A    between atoms: _293  and  _295
REMARK  122  A    between atoms: _295  and  _296
REMARK  123  A    between atoms: _295  and  _298
REMARK  124  A    between atoms: _298  and  _299
REMARK  125  A    between atoms: _304  and  _305
REMARK  126  A    between atoms: _307  and  _309
REMARK  127  A    between atoms: _309  and  _310
REMARK  128  A    between atoms: _309  and  _312
REMARK  129  A    between atoms: _312  and  _313
REMARK  130  A    between atoms: _313  and  _314
REMARK  131  A    between atoms: _316  and  _318
REMARK  132  A    between atoms: _318  and  _319
REMARK  133  A    between atoms: _318  and  _321
REMARK  134  A    between atoms: _321  and  _322
REMARK  135  A    between atoms: _328  and  _330
REMARK  136  A    between atoms: _330  and  _331
REMARK  137  A    between atoms: _333  and  _335
REMARK  138  A    between atoms: _335  and  _336
REMARK  139  A    between atoms: _335  and  _338
REMARK  140  A    between atoms: _338  and  _339
REMARK  141  A    between atoms: _339  and  _340
REMARK  142  A    between atoms: _340  and  _341
REMARK  143  A    between atoms: _341  and  _342
REMARK  144  A    between atoms: _346  and  _348
REMARK  145  A    between atoms: _348  and  _349
REMARK  146  A    between atoms: _351  and  _353
REMARK  147  A    between atoms: _353  and  _354
REMARK  148  A    between atoms: _353  and  _356
REMARK  149  A    between atoms: _356  and  _357
REMARK  150  A    between atoms: _360  and  _362
REMARK  151  A    between atoms: _362  and  _363
REMARK  152  A    between atoms: _362  and  _365
REMARK  153  A    between atoms: _365  and  _366
REMARK  154  A    between atoms: _371  and  _372
REMARK  155  A    between atoms: _374  and  _376
REMARK  156  A    between atoms: _376  and  _377
REMARK  157  A    between atoms: _376  and  _379
REMARK  158  A    between atoms: _379  and  _380
REMARK  159  A    between atoms: _386  and  _388
REMARK  160  A    between atoms: _388  and  _389
REMARK  161  A    between atoms: _392  and  _394
REMARK  162  A    between atoms: _394  and  _395
REMARK  163  A    between atoms: _394  and  _397
REMARK  164  A    between atoms: _397  and  _398
REMARK  165  A    between atoms: _401  and  _403
REMARK  166  A    between atoms: _403  and  _404
REMARK  167  A    between atoms: _403  and  _406
REMARK  168  A    between atoms: _406  and  _407
REMARK  169  A    between atoms: _407  and  _408
REMARK  170  A    between atoms: _410  and  _412
REMARK  171  A    between atoms: _412  and  _413
REMARK  172  A    between atoms: _412  and  _415
REMARK  173  A    between atoms: _415  and  _416
REMARK  174  A    between atoms: _418  and  _420
REMARK  175  A    between atoms: _420  and  _421
REMARK  176  A    between atoms: _420  and  _423
REMARK  177  A    between atoms: _423  and  _424
REMARK  178  A    between atoms: _426  and  _428
REMARK  179  A    between atoms: _428  and  _429
REMARK  180  A    between atoms: _428  and  _431
REMARK  181  A    between atoms: _431  and  _432
REMARK  182  A    between atoms: _432  and  _433
REMARK  183  A    between atoms: _433  and  _434
REMARK  184  A    between atoms: _434  and  _435
REMARK  185  A    between atoms: _439  and  _441
REMARK  186  A    between atoms: _441  and  _442
REMARK  187  A    between atoms: _441  and  _444
REMARK  188  A    between atoms: _444  and  _445
REMARK  189  A    between atoms: _447  and  _449
REMARK  190  A    between atoms: _449  and  _450
REMARK  191  A    between atoms: _453  and  _455
REMARK  192  A    between atoms: _455  and  _456
REMARK  193  A    between atoms: _455  and  _458
REMARK  194  A    between atoms: _458  and  _459
REMARK  195  A    between atoms: _464  and  _466
REMARK  196  A    between atoms: _466  and  _467
REMARK  197  A    between atoms: _466  and  _469
REMARK  198  A    between atoms: _469  and  _470
REMARK  199  A    between atoms: _475  and  _476
REMARK  200  A    between atoms: _478  and  _480
REMARK  201  A    between atoms: _480  and  _481
REMARK  202  A    between atoms: _480  and  _483
REMARK  203  A    between atoms: _485  and  _487
REMARK  204  A    between atoms: _487  and  _488
REMARK  205  A    between atoms: _487  and  _490
REMARK  206  A    between atoms: _490  and  _491
REMARK  207  A    between atoms: _497  and  _499
REMARK  208  A    between atoms: _499  and  _500
REMARK  209  A    between atoms: _499  and  _502
REMARK  210  A    between atoms: _502  and  _503
REMARK  211  A    between atoms: _506  and  _508
REMARK  212  A    between atoms: _508  and  _509
REMARK  213  A    between atoms: _508  and  _511
REMARK  214  A    between atoms: _511  and  _512
REMARK  215  A    between atoms: _515  and  _517
REMARK  216  A    between atoms: _517  and  _518
REMARK  217  A    between atoms: _520  and  _522
REMARK  218  A    between atoms: _522  and  _523
REMARK  219  A    between atoms: _522  and  _525
REMARK  220  A    between atoms: _525  and  _526
REMARK  221  A    between atoms: _529  and  _531
REMARK  222  A    between atoms: _531  and  _532
REMARK  223  A    between atoms: _531  and  _534
REMARK  224  A    between atoms: _534  and  _535
REMARK  225  A    between atoms: _540  and  _541
REMARK  226  A    between atoms: _543  and  _545
REMARK  227  A    between atoms: _545  and  _546
REMARK  228  A    between atoms: _545  and  _548
REMARK  229  A    between atoms: _548  and  _549
REMARK  230  A    between atoms: _554  and  _556
REMARK  231  A    between atoms: _556  and  _557
REMARK  232  A    between atoms: _556  and  _559
REMARK  233  A    between atoms: _559  and  _560
REMARK  234  A    between atoms: _560  and  _561
REMARK  235  A    between atoms: _564  and  _566
REMARK  236  A    between atoms: _566  and  _567
REMARK  237  A    between atoms: _566  and  _569
REMARK  238  A    between atoms: _569  and  _570
REMARK  239  A    between atoms: _575  and  _576
REMARK  240  A    between atoms: _578  and  _580
REMARK  241  A    between atoms: _580  and  _581
REMARK  242  A    between atoms: _580  and  _583
REMARK  243  A    between atoms: _583  and  _584
REMARK                            x       y       z     vdW  Elec       q    Type
REMARK                         _______ _______ _______ _____ _____    ______ ____
ROOT
ATOM      1  CA  HIS A   3      26.744 -18.122   0.011  0.00  0.00    +0.155 C 
ENDROOT
BRANCH   1   2
ATOM      2  C   HIS A   3      26.474 -18.788  -1.296  0.00  0.00    +0.241 C 
ATOM      3  N   GLY A   4      26.515 -20.127  -1.278  0.00  0.00    -0.295 N 
ATOM      4  H   GLY A   4      26.645 -20.607  -0.364  0.00  0.00    +0.150 HD
ATOM      5  O   HIS A   3      26.345 -18.100  -2.329  0.00  0.00    -0.273 OA
BRANCH   3   6
ATOM      6  CA  GLY A   4      26.387 -20.936  -2.468  0.00  0.00    +0.176 C 
BRANCH   6   7
ATOM      7  C   GLY A   4      24.999 -21.535  -2.359  0.00  0.00    +0.243 C 
ATOM      8  O   GLY A   4      24.444 -21.662  -1.257  0.00  0.00    -0.273 OA
ATOM      9  N   SER A   5      24.421 -21.920  -3.476  0.00  0.00    -0.295 N 
ATOM     10  H   SER A   5      24.909 -21.809  -4.388  0.00  0.00    +0.150 HD
BRANCH   9  11
ATOM     11  CA  SER A   5      23.062 -22.515  -3.418  0.00  0.00    +0.178 C 
BRANCH  11  12
ATOM     12  C   SER A   5      22.770 -23.136  -4.751  0.00  0.00    +0.243 C 
ATOM     13  N   ARG A   6      21.781 -24.036  -4.767  0.00  0.00    -0.298 N 
ATOM     14  H   ARG A   6      21.319 -24.251  -3.860  0.00  0.00    +0.150 HD
ATOM     15  O   SER A   5      23.432 -22.769  -5.742  0.00  0.00    -0.273 OA
BRANCH  13  16
ATOM     16  CA  ARG A   6      21.282 -24.760  -5.978  0.00  0.00    +0.137 C 
BRANCH  16  17
ATOM     17  C   ARG A   6      20.727 -23.765  -7.029  0.00  0.00    +0.227 C 
ATOM     18  O   ARG A   6      20.086 -22.769  -6.663  0.00  0.00    -0.286 OA
ENDBRANCH  16  17
BRANCH  16  19
ATOM     19  CB  ARG A   6      20.132 -25.726  -5.612  0.00  0.00    +0.031 C 
BRANCH  19  20
ATOM     20  CG  ARG A   6      20.614 -26.961  -4.865  0.00  0.00    +0.045 C 
BRANCH  20  21
ATOM     21  CD  ARG A   6      19.584 -27.643  -3.951  0.00  0.00    +0.174 C 
BRANCH  21  22
ATOM     22  NE  ARG A   6      20.096 -28.972  -3.590  0.00  0.00    -0.265 N 
ATOM     23  HE  ARG A   6      20.275 -29.180  -2.587  0.00  0.00    +0.259 HD
ATOM     24  CZ  ARG A   6      20.341 -29.924  -4.493  0.00  0.00    +0.342 C 
ATOM     25  NH2 ARG A   6      20.840 -31.096  -4.128  0.00  0.00    -0.292 N 
ATOM     26 HH21 ARG A   6      21.046 -31.284  -3.126  0.00  0.00    +0.255 HD
ATOM     27 HH22 ARG A   6      21.025 -31.828  -4.843  0.00  0.00    +0.255 HD
ATOM     28  NH1 ARG A   6      20.065 -29.700  -5.781  0.00  0.00    -0.292 N 
ATOM     29 HH11 ARG A   6      19.661 -28.788  -6.075  0.00  0.00    +0.255 HD
ATOM     30 HH12 ARG A   6      20.254 -30.438  -6.489  0.00  0.00    +0.255 HD
ENDBRANCH  21  22
ENDBRANCH  20  21
ENDBRANCH  19  20
ENDBRANCH  16  19
ENDBRANCH  13  16
ENDBRANCH  11  12
BRANCH  11  31
ATOM     31  CB  SER A   5      22.005 -21.425  -3.158  0.00  0.00    +0.166 C 
BRANCH  31  32
ATOM     32  OG  SER A   5      20.849 -22.040  -2.722  0.00  0.00    -0.380 OA
ATOM     33  H   SER A   5      21.036 -22.539  -1.888  0.00  0.00    +0.211 HD
ENDBRANCH  31  32
ENDBRANCH  11  31
ENDBRANCH   9  11
ENDBRANCH   6   7
ENDBRANCH   3   6
ENDBRANCH   1   2
BRANCH   1  36
ATOM     34  C   TRP A   2      28.809 -16.962   0.773  0.00  0.00    +0.241 C 
ATOM     35  O   TRP A   2      28.616 -17.238   1.955  0.00  0.00    -0.273 OA
ATOM     36  N   HIS A   3      27.970 -17.308  -0.207  0.00  0.00    -0.297 N 
ATOM     37  H   HIS A   3      28.185 -16.991  -1.174  0.00  0.00    +0.150 HD
BRANCH  34  38
ATOM     38  CA  TRP A   2      30.057 -16.265   0.335  0.00  0.00    +0.153 C 
BRANCH  38  40
ATOM     39  C   LEU A   1      30.309 -14.165   1.530  0.00  0.00    +0.238 C 
ATOM     40  N   TRP A   2      30.701 -15.414   1.290  0.00  0.00    -0.297 N 
ATOM     41  H   TRP A   2      31.513 -15.789   1.821  0.00  0.00    +0.150 HD
ATOM     42  O   LEU A   1      29.310 -13.676   1.021  0.00  0.00    -0.274 OA
BRANCH  39  43
ATOM     43  CA  LEU A   1      31.131 -13.380   2.586  0.00  0.00    +0.145 C 
BRANCH  43  44
ATOM     44  N   LEU A   1      31.110 -11.912   2.347  0.00  0.00    -0.238 NA
ATOM     45  H   LEU A   1      30.198 -11.455   2.145  0.00  0.00    +0.142 HD
ENDBRANCH  43  44
BRANCH  43  46
ATOM     46  CB  LEU A   1      30.526 -13.651   3.966  0.00  0.00    +0.026 C 
BRANCH  46  47
ATOM     47  CG  LEU A   1      31.272 -13.030   5.165  0.00  0.00    +0.002 C 
ATOM     48  CD2 LEU A   1      30.530 -13.316   6.469  0.00  0.00    +0.000 C 
ATOM     49  CD1 LEU A   1      32.637 -13.695   5.232  0.00  0.00    +0.000 C 
ENDBRANCH  46  47
ENDBRANCH  43  46
ENDBRANCH  39  43
ENDBRANCH  38  40
BRANCH  38  50
ATOM     50  CB  TRP A   2      31.016 -17.306  -0.118  0.00  0.00    +0.057 C 
BRANCH  50  51
ATOM     51  CG  TRP A   2      32.347 -16.833  -0.570  0.00  0.00    -0.002 A 
ATOM     52  CD1 TRP A   2      33.531 -16.837   0.148  0.00  0.00    +0.068 A 
ATOM     53  NE1 TRP A   2      34.551 -16.367  -0.620  0.00  0.00    -0.352 N 
ATOM     54  HE1 TRP A   2      35.531 -16.249  -0.293  0.00  0.00    +0.166 HD
ATOM     55  CE2 TRP A   2      34.107 -16.068  -1.890  0.00  0.00    +0.056 A 
ATOM     56  CZ2 TRP A   2      34.771 -15.556  -2.999  0.00  0.00    +0.017 A 
ATOM     57  CH2 TRP A   2      34.006 -15.350  -4.188  0.00  0.00    +0.001 A 
ATOM     58  CZ3 TRP A   2      32.629 -15.649  -4.226  0.00  0.00    +0.000 A 
ATOM     59  CE3 TRP A   2      31.952 -16.105  -3.100  0.00  0.00    +0.001 A 
ATOM     60  CD2 TRP A   2      32.685 -16.335  -1.913  0.00  0.00    +0.013 A 
ENDBRANCH  50  51
ENDBRANCH  38  50
ENDBRANCH  34  38
ENDBRANCH   1  36
BRANCH   1  61
ATOM     61  CB  HIS A   3      25.515 -17.322   0.480  0.00  0.00    +0.076 C 
BRANCH  61  62
ATOM     62  CG  HIS A   3      24.332 -18.197   0.921  0.00  0.00    +0.082 A 
ATOM     63  ND1 HIS A   3      24.155 -18.587   2.203  0.00  0.00    -0.227 NA
ATOM     64  CE1 HIS A   3      23.026 -19.333   2.296  0.00  0.00    +0.199 A 
ATOM     65  NE2 HIS A   3      22.508 -19.445   1.070  0.00  0.00    -0.221 NA
ATOM     66  CD2 HIS A   3      23.274 -18.752   0.201  0.00  0.00    +0.115 A 
ENDBRANCH  61  62
ENDBRANCH   1  61
TORSDOF 24
REMARK  Name = ../refined-set-2016/4zzy/4zzy_pocket.pdb
REMARK  243 active torsions:
REMARK  status: ('A' for Active; 'I' for Inactive)
REMARK    1  A    between atoms: _1  and  _3
REMARK    2  A    between atoms: _3  and  _4
REMARK    3  A    between atoms: _3  and  _6
REMARK    4  A    between atoms: _6  and  _7
REMARK    5  A    between atoms: _12  and  _13
REMARK    6  A    between atoms: _15  and  _17
REMARK    7  A    between atoms: _17  and  _18
REMARK    8  A    between atoms: _17  and  _20
REMARK    9  A    between atoms: _20  and  _21
REMARK   10  A    between atoms: _24  and  _26
REMARK   11  A    between atoms: _26  and  _27
REMARK   12  A    between atoms: _26  and  _29
REMARK   13  A    between atoms: _29  and  _30
REMARK   14  A    between atoms: _30  and  _31
REMARK   15  A    between atoms: _34  and  _36
REMARK   16  A    between atoms: _36  and  _37
REMARK   17  A    between atoms: _36  and  _39
REMARK   18  A    between atoms: _39  and  _40
REMARK   19  A    between atoms: _40  and  _41
REMARK   20  A    between atoms: _46  and  _48
REMARK   21  A    between atoms: _48  and  _49
REMARK   22  A    between atoms: _48  and  _51
REMARK   23  A    between atoms: _51  and  _52
REMARK   24  A    between atoms: _52  and  _53
REMARK   25  A    between atoms: _53  and  _54
REMARK   26  A    between atoms: _54  and  _55
REMARK   27  A    between atoms: _59  and  _61
REMARK   28  A    between atoms: _61  and  _62
REMARK   29  A    between atoms: _61  and  _64
REMARK   30  A    between atoms: _64  and  _65
REMARK   31  A    between atoms: _65  and  _66
REMARK   32  A    between atoms: _69  and  _71
REMARK   33  A    between atoms: _71  and  _72
REMARK   34  A    between atoms: _71  and  _74
REMARK   35  A    between atoms: _74  and  _75
REMARK   36  A    between atoms: _78  and  _80
REMARK   37  A    between atoms: _80  and  _81
REMARK   38  A    between atoms: _80  and  _83
REMARK   39  A    between atoms: _83  and  _84
REMARK   40  A    between atoms: _86  and  _88
REMARK   41  A    between atoms: _88  and  _89
REMARK   42  A    between atoms: _88  and  _91
REMARK   43  A    between atoms: _91  and  _92
REMARK   44  A    between atoms: _92  and  _93
REMARK   45  A    between atoms: _96  and  _98
REMARK   46  A    between atoms: _98  and  _99
REMARK   47  A    between atoms: _98  and  _101
REMARK   48  A    between atoms: _101  and  _102
REMARK   49  A    between atoms: _102  and  _103
REMARK   50  A    between atoms: _103  and  _104
REMARK   51  A    between atoms: _104  and  _105
REMARK   52  A    between atoms: _109  and  _111
REMARK   53  A    between atoms: _111  and  _112
REMARK   54  A    between atoms: _111  and  _114
REMARK   55  A    between atoms: _114  and  _115
REMARK   56  A    between atoms: _118  and  _120
REMARK   57  A    between atoms: _120  and  _121
REMARK   58  A    between atoms: _120  and  _123
REMARK   59  A    between atoms: _123  and  _124
REMARK   60  A    between atoms: _124  and  _125
REMARK   61  A    between atoms: _130  and  _132
REMARK   62  A    between atoms: _132  and  _133
REMARK   63  A    between atoms: _132  and  _135
REMARK   64  A    between atoms: _135  and  _136
REMARK   65  A    between atoms: _139  and  _141
REMARK   66  A    between atoms: _141  and  _142
REMARK   67  A    between atoms: _141  and  _144
REMARK   68  A    between atoms: _144  and  _145
REMARK   69  A    between atoms: _145  and  _146
REMARK   70  A    between atoms: _149  and  _151
REMARK   71  A    between atoms: _151  and  _152
REMARK   72  A    between atoms: _151  and  _154
REMARK   73  A    between atoms: _154  and  _155
REMARK   74  A    between atoms: _158  and  _160
REMARK   75  A    between atoms: _160  and  _161
REMARK   76  A    between atoms: _160  and  _163
REMARK   77  A    between atoms: _163  and  _164
REMARK   78  A    between atoms: _174  and  _176
REMARK   79  A    between atoms: _176  and  _177
REMARK   80  A    between atoms: _176  and  _179
REMARK   81  A    between atoms: _179  and  _180
REMARK   82  A    between atoms: _185  and  _187
REMARK   83  A    between atoms: _187  and  _188
REMARK   84  A    between atoms: _190  and  _192
REMARK   85  A    between atoms: _192  and  _193
REMARK   86  A    between atoms: _192  and  _195
REMARK   87  A    between atoms: _195  and  _196
REMARK   88  A    between atoms: _198  and  _200
REMARK   89  A    between atoms: _200  and  _201
REMARK   90  A    between atoms: _200  and  _203
REMARK   91  A    between atoms: _203  and  _204
REMARK   92  A    between atoms: _204  and  _205
REMARK   93  A    between atoms: _205  and  _206
REMARK   94  A    between atoms: _215  and  _217
REMARK   95  A    between atoms: _217  and  _218
REMARK   96  A    between atoms: _217  and  _220
REMARK   97  A    between atoms: _220  and  _221
REMARK   98  A    between atoms: _226  and  _228
REMARK   99  A    between atoms: _228  and  _229
REMARK  100  A    between atoms: _228  and  _231
REMARK  101  A    between atoms: _231  and  _232
REMARK  102  A    between atoms: _242  and  _244
REMARK  103  A    between atoms: _244  and  _245
REMARK  104  A    between atoms: _244  and  _247
REMARK  105  A    between atoms: _247  and  _248
REMARK  106  A    between atoms: _251  and  _253
REMARK  107  A    between atoms: _253  and  _254
REMARK  108  A    between atoms: _257  and  _259
REMARK  109  A    between atoms: _259  and  _260
REMARK  110  A    between atoms: _264  and  _265
REMARK  111  A    between atoms: _270  and  _272
REMARK  112  A    between atoms: _272  and  _273
REMARK  113  A    between atoms: _272  and  _275
REMARK  114  A    between atoms: _275  and  _276
REMARK  115  A    between atoms: _279  and  _281
REMARK  116  A    between atoms: _281  and  _282
REMARK  117  A    between atoms: _281  and  _284
REMARK  118  A    between atoms: _284  and  _285
REMARK  119  A    between atoms: _288  and  _290
REMARK  120  A    between atoms: _290  and  _291
REMARK  121  A    between atoms: _293  and  _295
REMARK  122  A    between atoms: _295  and  _296
REMARK  123  A    between atoms: _295  and  _298
REMARK  124  A    between atoms: _298  and  _299
REMARK  125  A    between atoms: _304  and  _305
REMARK  126  A    between atoms: _307  and  _309
REMARK  127  A    between atoms: _309  and  _310
REMARK  128  A    between atoms: _309  and  _312
REMARK  129  A    between atoms: _312  and  _313
REMARK  130  A    between atoms: _313  and  _314
REMARK  131  A    between atoms: _316  and  _318
REMARK  132  A    between atoms: _318  and  _319
REMARK  133  A    between atoms: _318  and  _321
REMARK  134  A    between atoms: _321  and  _322
REMARK  135  A    between atoms: _328  and  _330
REMARK  136  A    between atoms: _330  and  _331
REMARK  137  A    between atoms: _333  and  _335
REMARK  138  A    between atoms: _335  and  _336
REMARK  139  A    between atoms: _335  and  _338
REMARK  140  A    between atoms: _338  and  _339
REMARK  141  A    between atoms: _339  and  _340
REMARK  142  A    between atoms: _340  and  _341
REMARK  143  A    between atoms: _341  and  _342
REMARK  144  A    between atoms: _346  and  _348
REMARK  145  A    between atoms: _348  and  _349
REMARK  146  A    between atoms: _351  and  _353
REMARK  147  A    between atoms: _353  and  _354
REMARK  148  A    between atoms: _353  and  _356
REMARK  149  A    between atoms: _356  and  _357
REMARK  150  A    between atoms: _360  and  _362
REMARK  151  A    between atoms: _362  and  _363
REMARK  152  A    between atoms: _362  and  _365
REMARK  153  A    between atoms: _365  and  _366
REMARK  154  A    between atoms: _371  and  _372
REMARK  155  A    between atoms: _374  and  _376
REMARK  156  A    between atoms: _376  and  _377
REMARK  157  A    between atoms: _376  and  _379
REMARK  158  A    between atoms: _379  and  _380
REMARK  159  A    between atoms: _386  and  _388
REMARK  160  A    between atoms: _388  and  _389
REMARK  161  A    between atoms: _392  and  _394
REMARK  162  A    between atoms: _394  and  _395
REMARK  163  A    between atoms: _394  and  _397
REMARK  164  A    between atoms: _397  and  _398
REMARK  165  A    between atoms: _401  and  _403
REMARK  166  A    between atoms: _403  and  _404
REMARK  167  A    between atoms: _403  and  _406
REMARK  168  A    between atoms: _406  and  _407
REMARK  169  A    between atoms: _407  and  _408
REMARK  170  A    between atoms: _410  and  _412
REMARK  171  A    between atoms: _412  and  _413
REMARK  172  A    between atoms: _412  and  _415
REMARK  173  A    between atoms: _415  and  _416
REMARK  174  A    between atoms: _418  and  _420
REMARK  175  A    between atoms: _420  and  _421
REMARK  176  A    between atoms: _420  and  _423
REMARK  177  A    between atoms: _423  and  _424
REMARK  178  A    between atoms: _426  and  _428
REMARK  179  A    between atoms: _428  and  _429
REMARK  180  A    between atoms: _428  and  _431
REMARK  181  A    between atoms: _431  and  _432
REMARK  182  A    between atoms: _432  and  _433
REMARK  183  A    between atoms: _433  and  _434
REMARK  184  A    between atoms: _434  and  _435
REMARK  185  A    between atoms: _439  and  _441
REMARK  186  A    between atoms: _441  and  _442
REMARK  187  A    between atoms: _441  and  _444
REMARK  188  A    between atoms: _444  and  _445
REMARK  189  A    between atoms: _447  and  _449
REMARK  190  A    between atoms: _449  and  _450
REMARK  191  A    between atoms: _453  and  _455
REMARK  192  A    between atoms: _455  and  _456
REMARK  193  A    between atoms: _455  and  _458
REMARK  194  A    between atoms: _458  and  _459
REMARK  195  A    between atoms: _464  and  _466
REMARK  196  A    between atoms: _466  and  _467
REMARK  197  A    between atoms: _466  and  _469
REMARK  198  A    between atoms: _469  and  _470
REMARK  199  A    between atoms: _475  and  _476
REMARK  200  A    between atoms: _478  and  _480
REMARK  201  A    between atoms: _480  and  _481
REMARK  202  A    between atoms: _480  and  _483
REMARK  203  A    between atoms: _485  and  _487
REMARK  204  A    between atoms: _487  and  _488
REMARK  205  A    between atoms: _487  and  _490
REMARK  206  A    between atoms: _490  and  _491
REMARK  207  A    between atoms: _497  and  _499
REMARK  208  A    between atoms: _499  and  _500
REMARK  209  A    between atoms: _499  and  _502
REMARK  210  A    between atoms: _502  and  _503
REMARK  211  A    between atoms: _506  and  _508
REMARK  212  A    between atoms: _508  and  _509
REMARK  213  A    between atoms: _508  and  _511
REMARK  214  A    between atoms: _511  and  _512
REMARK  215  A    between atoms: _515  and  _517
REMARK  216  A    between atoms: _517  and  _518
REMARK  217  A    between atoms: _520  and  _522
REMARK  218  A    between atoms: _522  and  _523
REMARK  219  A    between atoms: _522  and  _525
REMARK  220  A    between atoms: _525  and  _526
REMARK  221  A    between atoms: _529  and  _531
REMARK  222  A    between atoms: _531  and  _532
REMARK  223  A    between atoms: _531  and  _534
REMARK  224  A    between atoms: _534  and  _535
REMARK  225  A    between atoms: _540  and  _541
REMARK  226  A    between atoms: _543  and  _545
REMARK  227  A    between atoms: _545  and  _546
REMARK  228  A    between atoms: _545  and  _548
REMARK  229  A    between atoms: _548  and  _549
REMARK  230  A    between atoms: _554  and  _556
REMARK  231  A    between atoms: _556  and  _557
REMARK  232  A    between atoms: _556  and  _559
REMARK  233  A    between atoms: _559  and  _560
REMARK  234  A    between atoms: _560  and  _561
REMARK  235  A    between atoms: _564  and  _566
REMARK  236  A    between atoms: _566  and  _567
REMARK  237  A    between atoms: _566  and  _569
REMARK  238  A    between atoms: _569  and  _570
REMARK  239  A    between atoms: _575  and  _576
REMARK  240  A    between atoms: _578  and  _580
REMARK  241  A    between atoms: _580  and  _581
REMARK  242  A    between atoms: _580  and  _583
REMARK  243  A    between atoms: _583  and  _584
REMARK                            x       y       z     vdW  Elec       q    Type
REMARK                         _______ _______ _______ _____ _____    ______ ____
ROOT
ATOM      1  CA  TRP A   2      18.083 -18.147  -6.988  0.00  0.00    +0.141 C 
ENDROOT
BRANCH   1   4
ATOM      2  C   ASN A   1      17.080 -19.959  -5.737  0.00  0.00    +0.239 C 
ATOM      3  O   ASN A   1      16.690 -19.198  -4.903  0.00  0.00    -0.274 OA
ATOM      4  N   TRP A   2      17.682 -19.539  -6.852  0.00  0.00    -0.298 N 
ATOM      5  H   TRP A   2      17.865 -20.209  -7.626  0.00  0.00    +0.150 HD
BRANCH   2   6
ATOM      6  CA  ASN A   1      16.915 -21.457  -5.480  0.00  0.00    +0.154 C 
BRANCH   6   7
ATOM      7  N   ASN A   1      17.154 -22.333  -6.589  0.00  0.00    -0.238 NA
ATOM      8  H   ASN A   1      18.058 -22.842  -6.664  0.00  0.00    +0.142 HD
ENDBRANCH   6   7
BRANCH   6   9
ATOM      9  CB  ASN A   1      17.793 -21.872  -4.310  0.00  0.00    +0.111 C 
BRANCH   9  10
ATOM     10  CG  ASN A   1      17.388 -23.220  -3.726  0.00  0.00    +0.221 C 
ATOM     11  ND2 ASN A   1      18.259 -23.778  -2.875  0.00  0.00    -0.329 N 
ATOM     12 HD21 ASN A   1      18.054 -24.707  -2.456  0.00  0.00    +0.145 HD
ATOM     13 HD22 ASN A   1      19.140 -23.282  -2.633  0.00  0.00    +0.145 HD
ATOM     14  OD1 ASN A   1      16.324 -23.762  -4.051  0.00  0.00    -0.275 OA
ENDBRANCH   9  10
ENDBRANCH   6   9
ENDBRANCH   2   6
ENDBRANCH   1   4
BRANCH   1  15
ATOM     15  C   TRP A   2      16.950 -17.197  -7.244  0.00  0.00    +0.227 C 
ATOM     16  O   TRP A   2      17.007 -16.049  -6.811  0.00  0.00    -0.286 OA
ENDBRANCH   1  15
BRANCH   1  17
ATOM     17  CB  TRP A   2      19.173 -17.988  -8.032  0.00  0.00    +0.056 C 
BRANCH  17  18
ATOM     18  CG  TRP A   2      20.443 -18.646  -7.590  0.00  0.00    -0.002 A 
ATOM     19  CD2 TRP A   2      21.295 -18.237  -6.473  0.00  0.00    +0.013 A 
ATOM     20  CE3 TRP A   2      21.285 -17.181  -5.585  0.00  0.00    +0.001 A 
ATOM     21  CZ3 TRP A   2      22.273 -17.149  -4.579  0.00  0.00    +0.000 A 
ATOM     22  CH2 TRP A   2      23.322 -18.085  -4.544  0.00  0.00    +0.001 A 
ATOM     23  CZ2 TRP A   2      23.385 -19.156  -5.460  0.00  0.00    +0.017 A 
ATOM     24  CE2 TRP A   2      22.373 -19.232  -6.401  0.00  0.00    +0.056 A 
ATOM     25  NE1 TRP A   2      22.161 -20.122  -7.413  0.00  0.00    -0.352 N 
ATOM     26  HE1 TRP A   2      22.774 -20.936  -7.619  0.00  0.00    +0.166 HD
ATOM     27  CD1 TRP A   2      21.045 -19.804  -8.114  0.00  0.00    +0.068 A 
ENDBRANCH  17  18
ENDBRANCH   1  17
TORSDOF 8
REMARK  Name = ../refined-set-2016/4zzy/4zzy_pocket.pdb
REMARK  243 active torsions:
REMARK  status: ('A' for Active; 'I' for Inactive)
REMARK    1  A    between atoms: _1  and  _3
REMARK    2  A    between atoms: _3  and  _4
REMARK    3  A    between atoms: _3  and  _6
REMARK    4  A    between atoms: _6  and  _7
REMARK    5  A    between atoms: _12  and  _13
REMARK    6  A    between atoms: _15  and  _17
REMARK    7  A    between atoms: _17  and  _18
REMARK    8  A    between atoms: _17  and  _20
REMARK    9  A    between atoms: _20  and  _21
REMARK   10  A    between atoms: _24  and  _26
REMARK   11  A    between atoms: _26  and  _27
REMARK   12  A    between atoms: _26  and  _29
REMARK   13  A    between atoms: _29  and  _30
REMARK   14  A    between atoms: _30  and  _31
REMARK   15  A    between atoms: _34  and  _36
REMARK   16  A    between atoms: _36  and  _37
REMARK   17  A    between atoms: _36  and  _39
REMARK   18  A    between atoms: _39  and  _40
REMARK   19  A    between atoms: _40  and  _41
REMARK   20  A    between atoms: _46  and  _48
REMARK   21  A    between atoms: _48  and  _49
REMARK   22  A    between atoms: _48  and  _51
REMARK   23  A    between atoms: _51  and  _52
REMARK   24  A    between atoms: _52  and  _53
REMARK   25  A    between atoms: _53  and  _54
REMARK   26  A    between atoms: _54  and  _55
REMARK   27  A    between atoms: _59  and  _61
REMARK   28  A    between atoms: _61  and  _62
REMARK   29  A    between atoms: _61  and  _64
REMARK   30  A    between atoms: _64  and  _65
REMARK   31  A    between atoms: _65  and  _66
REMARK   32  A    between atoms: _69  and  _71
REMARK   33  A    between atoms: _71  and  _72
REMARK   34  A    between atoms: _71  and  _74
REMARK   35  A    between atoms: _74  and  _75
REMARK   36  A    between atoms: _78  and  _80
REMARK   37  A    between atoms: _80  and  _81
REMARK   38  A    between atoms: _80  and  _83
REMARK   39  A    between atoms: _83  and  _84
REMARK   40  A    between atoms: _86  and  _88
REMARK   41  A    between atoms: _88  and  _89
REMARK   42  A    between atoms: _88  and  _91
REMARK   43  A    between atoms: _91  and  _92
REMARK   44  A    between atoms: _92  and  _93
REMARK   45  A    between atoms: _96  and  _98
REMARK   46  A    between atoms: _98  and  _99
REMARK   47  A    between atoms: _98  and  _101
REMARK   48  A    between atoms: _101  and  _102
REMARK   49  A    between atoms: _102  and  _103
REMARK   50  A    between atoms: _103  and  _104
REMARK   51  A    between atoms: _104  and  _105
REMARK   52  A    between atoms: _109  and  _111
REMARK   53  A    between atoms: _111  and  _112
REMARK   54  A    between atoms: _111  and  _114
REMARK   55  A    between atoms: _114  and  _115
REMARK   56  A    between atoms: _118  and  _120
REMARK   57  A    between atoms: _120  and  _121
REMARK   58  A    between atoms: _120  and  _123
REMARK   59  A    between atoms: _123  and  _124
REMARK   60  A    between atoms: _124  and  _125
REMARK   61  A    between atoms: _130  and  _132
REMARK   62  A    between atoms: _132  and  _133
REMARK   63  A    between atoms: _132  and  _135
REMARK   64  A    between atoms: _135  and  _136
REMARK   65  A    between atoms: _139  and  _141
REMARK   66  A    between atoms: _141  and  _142
REMARK   67  A    between atoms: _141  and  _144
REMARK   68  A    between atoms: _144  and  _145
REMARK   69  A    between atoms: _145  and  _146
REMARK   70  A    between atoms: _149  and  _151
REMARK   71  A    between atoms: _151  and  _152
REMARK   72  A    between atoms: _151  and  _154
REMARK   73  A    between atoms: _154  and  _155
REMARK   74  A    between atoms: _158  and  _160
REMARK   75  A    between atoms: _160  and  _161
REMARK   76  A    between atoms: _160  and  _163
REMARK   77  A    between atoms: _163  and  _164
REMARK   78  A    between atoms: _174  and  _176
REMARK   79  A    between atoms: _176  and  _177
REMARK   80  A    between atoms: _176  and  _179
REMARK   81  A    between atoms: _179  and  _180
REMARK   82  A    between atoms: _185  and  _187
REMARK   83  A    between atoms: _187  and  _188
REMARK   84  A    between atoms: _190  and  _192
REMARK   85  A    between atoms: _192  and  _193
REMARK   86  A    between atoms: _192  and  _195
REMARK   87  A    between atoms: _195  and  _196
REMARK   88  A    between atoms: _198  and  _200
REMARK   89  A    between atoms: _200  and  _201
REMARK   90  A    between atoms: _200  and  _203
REMARK   91  A    between atoms: _203  and  _204
REMARK   92  A    between atoms: _204  and  _205
REMARK   93  A    between atoms: _205  and  _206
REMARK   94  A    between atoms: _215  and  _217
REMARK   95  A    between atoms: _217  and  _218
REMARK   96  A    between atoms: _217  and  _220
REMARK   97  A    between atoms: _220  and  _221
REMARK   98  A    between atoms: _226  and  _228
REMARK   99  A    between atoms: _228  and  _229
REMARK  100  A    between atoms: _228  and  _231
REMARK  101  A    between atoms: _231  and  _232
REMARK  102  A    between atoms: _242  and  _244
REMARK  103  A    between atoms: _244  and  _245
REMARK  104  A    between atoms: _244  and  _247
REMARK  105  A    between atoms: _247  and  _248
REMARK  106  A    between atoms: _251  and  _253
REMARK  107  A    between atoms: _253  and  _254
REMARK  108  A    between atoms: _257  and  _259
REMARK  109  A    between atoms: _259  and  _260
REMARK  110  A    between atoms: _264  and  _265
REMARK  111  A    between atoms: _270  and  _272
REMARK  112  A    between atoms: _272  and  _273
REMARK  113  A    between atoms: _272  and  _275
REMARK  114  A    between atoms: _275  and  _276
REMARK  115  A    between atoms: _279  and  _281
REMARK  116  A    between atoms: _281  and  _282
REMARK  117  A    between atoms: _281  and  _284
REMARK  118  A    between atoms: _284  and  _285
REMARK  119  A    between atoms: _288  and  _290
REMARK  120  A    between atoms: _290  and  _291
REMARK  121  A    between atoms: _293  and  _295
REMARK  122  A    between atoms: _295  and  _296
REMARK  123  A    between atoms: _295  and  _298
REMARK  124  A    between atoms: _298  and  _299
REMARK  125  A    between atoms: _304  and  _305
REMARK  126  A    between atoms: _307  and  _309
REMARK  127  A    between atoms: _309  and  _310
REMARK  128  A    between atoms: _309  and  _312
REMARK  129  A    between atoms: _312  and  _313
REMARK  130  A    between atoms: _313  and  _314
REMARK  131  A    between atoms: _316  and  _318
REMARK  132  A    between atoms: _318  and  _319
REMARK  133  A    between atoms: _318  and  _321
REMARK  134  A    between atoms: _321  and  _322
REMARK  135  A    between atoms: _328  and  _330
REMARK  136  A    between atoms: _330  and  _331
REMARK  137  A    between atoms: _333  and  _335
REMARK  138  A    between atoms: _335  and  _336
REMARK  139  A    between atoms: _335  and  _338
REMARK  140  A    between atoms: _338  and  _339
REMARK  141  A    between atoms: _339  and  _340
REMARK  142  A    between atoms: _340  and  _341
REMARK  143  A    between atoms: _341  and  _342
REMARK  144  A    between atoms: _346  and  _348
REMARK  145  A    between atoms: _348  and  _349
REMARK  146  A    between atoms: _351  and  _353
REMARK  147  A    between atoms: _353  and  _354
REMARK  148  A    between atoms: _353  and  _356
REMARK  149  A    between atoms: _356  and  _357
REMARK  150  A    between atoms: _360  and  _362
REMARK  151  A    between atoms: _362  and  _363
REMARK  152  A    between atoms: _362  and  _365
REMARK  153  A    between atoms: _365  and  _366
REMARK  154  A    between atoms: _371  and  _372
REMARK  155  A    between atoms: _374  and  _376
REMARK  156  A    between atoms: _376  and  _377
REMARK  157  A    between atoms: _376  and  _379
REMARK  158  A    between atoms: _379  and  _380
REMARK  159  A    between atoms: _386  and  _388
REMARK  160  A    between atoms: _388  and  _389
REMARK  161  A    between atoms: _392  and  _394
REMARK  162  A    between atoms: _394  and  _395
REMARK  163  A    between atoms: _394  and  _397
REMARK  164  A    between atoms: _397  and  _398
REMARK  165  A    between atoms: _401  and  _403
REMARK  166  A    between atoms: _403  and  _404
REMARK  167  A    between atoms: _403  and  _406
REMARK  168  A    between atoms: _406  and  _407
REMARK  169  A    between atoms: _407  and  _408
REMARK  170  A    between atoms: _410  and  _412
REMARK  171  A    between atoms: _412  and  _413
REMARK  172  A    between atoms: _412  and  _415
REMARK  173  A    between atoms: _415  and  _416
REMARK  174  A    between atoms: _418  and  _420
REMARK  175  A    between atoms: _420  and  _421
REMARK  176  A    between atoms: _420  and  _423
REMARK  177  A    between atoms: _423  and  _424
REMARK  178  A    between atoms: _426  and  _428
REMARK  179  A    between atoms: _428  and  _429
REMARK  180  A    between atoms: _428  and  _431
REMARK  181  A    between atoms: _431  and  _432
REMARK  182  A    between atoms: _432  and  _433
REMARK  183  A    between atoms: _433  and  _434
REMARK  184  A    between atoms: _434  and  _435
REMARK  185  A    between atoms: _439  and  _441
REMARK  186  A    between atoms: _441  and  _442
REMARK  187  A    between atoms: _441  and  _444
REMARK  188  A    between atoms: _444  and  _445
REMARK  189  A    between atoms: _447  and  _449
REMARK  190  A    between atoms: _449  and  _450
REMARK  191  A    between atoms: _453  and  _455
REMARK  192  A    between atoms: _455  and  _456
REMARK  193  A    between atoms: _455  and  _458
REMARK  194  A    between atoms: _458  and  _459
REMARK  195  A    between atoms: _464  and  _466
REMARK  196  A    between atoms: _466  and  _467
REMARK  197  A    between atoms: _466  and  _469
REMARK  198  A    between atoms: _469  and  _470
REMARK  199  A    between atoms: _475  and  _476
REMARK  200  A    between atoms: _478  and  _480
REMARK  201  A    between atoms: _480  and  _481
REMARK  202  A    between atoms: _480  and  _483
REMARK  203  A    between atoms: _485  and  _487
REMARK  204  A    between atoms: _487  and  _488
REMARK  205  A    between atoms: _487  and  _490
REMARK  206  A    between atoms: _490  and  _491
REMARK  207  A    between atoms: _497  and  _499
REMARK  208  A    between atoms: _499  and  _500
REMARK  209  A    between atoms: _499  and  _502
REMARK  210  A    between atoms: _502  and  _503
REMARK  211  A    between atoms: _506  and  _508
REMARK  212  A    between atoms: _508  and  _509
REMARK  213  A    between atoms: _508  and  _511
REMARK  214  A    between atoms: _511  and  _512
REMARK  215  A    between atoms: _515  and  _517
REMARK  216  A    between atoms: _517  and  _518
REMARK  217  A    between atoms: _520  and  _522
REMARK  218  A    between atoms: _522  and  _523
REMARK  219  A    between atoms: _522  and  _525
REMARK  220  A    between atoms: _525  and  _526
REMARK  221  A    between atoms: _529  and  _531
REMARK  222  A    between atoms: _531  and  _532
REMARK  223  A    between atoms: _531  and  _534
REMARK  224  A    between atoms: _534  and  _535
REMARK  225  A    between atoms: _540  and  _541
REMARK  226  A    between atoms: _543  and  _545
REMARK  227  A    between atoms: _545  and  _546
REMARK  228  A    between atoms: _545  and  _548
REMARK  229  A    between atoms: _548  and  _549
REMARK  230  A    between atoms: _554  and  _556
REMARK  231  A    between atoms: _556  and  _557
REMARK  232  A    between atoms: _556  and  _559
REMARK  233  A    between atoms: _559  and  _560
REMARK  234  A    between atoms: _560  and  _561
REMARK  235  A    between atoms: _564  and  _566
REMARK  236  A    between atoms: _566  and  _567
REMARK  237  A    between atoms: _566  and  _569
REMARK  238  A    between atoms: _569  and  _570
REMARK  239  A    between atoms: _575  and  _576
REMARK  240  A    between atoms: _578  and  _580
REMARK  241  A    between atoms: _580  and  _581
REMARK  242  A    between atoms: _580  and  _583
REMARK  243  A    between atoms: _583  and  _584
REMARK                            x       y       z     vdW  Elec       q    Type
REMARK                         _______ _______ _______ _____ _____    ______ ____
ROOT
ATOM      1  CA  LEU A   1      18.272 -14.969   2.184  0.00  0.00    +0.133 C 
ENDROOT
BRANCH   1   2
ATOM      2  N   LEU A   1      17.967 -13.730   1.512  0.00  0.00    -0.239 NA
ATOM      3  H   LEU A   1      18.625 -12.929   1.598  0.00  0.00    +0.142 HD
ENDBRANCH   1   2
BRANCH   1   4
ATOM      4  C   LEU A   1      17.380 -15.047   3.428  0.00  0.00    +0.224 C 
ATOM      5  O   LEU A   1      17.110 -14.018   4.087  0.00  0.00    -0.287 OA
ENDBRANCH   1   4
BRANCH   1   6
ATOM      6  CB  LEU A   1      19.777 -15.026   2.498  0.00  0.00    +0.025 C 
BRANCH   6   7
ATOM      7  CG  LEU A   1      20.788 -15.010   1.335  0.00  0.00    +0.002 C 
ATOM      8  CD2 LEU A   1      22.197 -14.646   1.839  0.00  0.00    +0.000 C 
ATOM      9  CD1 LEU A   1      20.833 -16.377   0.699  0.00  0.00    +0.000 C 
ENDBRANCH   6   7
ENDBRANCH   1   6
TORSDOF 4
REMARK  Name = ../refined-set-2016/4zzy/4zzy_pocket.pdb
REMARK  243 active torsions:
REMARK  status: ('A' for Active; 'I' for Inactive)
REMARK    1  A    between atoms: _1  and  _3
REMARK    2  A    between atoms: _3  and  _4
REMARK    3  A    between atoms: _3  and  _6
REMARK    4  A    between atoms: _6  and  _7
REMARK    5  A    between atoms: _12  and  _13
REMARK    6  A    between atoms: _15  and  _17
REMARK    7  A    between atoms: _17  and  _18
REMARK    8  A    between atoms: _17  and  _20
REMARK    9  A    between atoms: _20  and  _21
REMARK   10  A    between atoms: _24  and  _26
REMARK   11  A    between atoms: _26  and  _27
REMARK   12  A    between atoms: _26  and  _29
REMARK   13  A    between atoms: _29  and  _30
REMARK   14  A    between atoms: _30  and  _31
REMARK   15  A    between atoms: _34  and  _36
REMARK   16  A    between atoms: _36  and  _37
REMARK   17  A    between atoms: _36  and  _39
REMARK   18  A    between atoms: _39  and  _40
REMARK   19  A    between atoms: _40  and  _41
REMARK   20  A    between atoms: _46  and  _48
REMARK   21  A    between atoms: _48  and  _49
REMARK   22  A    between atoms: _48  and  _51
REMARK   23  A    between atoms: _51  and  _52
REMARK   24  A    between atoms: _52  and  _53
REMARK   25  A    between atoms: _53  and  _54
REMARK   26  A    between atoms: _54  and  _55
REMARK   27  A    between atoms: _59  and  _61
REMARK   28  A    between atoms: _61  and  _62
REMARK   29  A    between atoms: _61  and  _64
REMARK   30  A    between atoms: _64  and  _65
REMARK   31  A    between atoms: _65  and  _66
REMARK   32  A    between atoms: _69  and  _71
REMARK   33  A    between atoms: _71  and  _72
REMARK   34  A    between atoms: _71  and  _74
REMARK   35  A    between atoms: _74  and  _75
REMARK   36  A    between atoms: _78  and  _80
REMARK   37  A    between atoms: _80  and  _81
REMARK   38  A    between atoms: _80  and  _83
REMARK   39  A    between atoms: _83  and  _84
REMARK   40  A    between atoms: _86  and  _88
REMARK   41  A    between atoms: _88  and  _89
REMARK   42  A    between atoms: _88  and  _91
REMARK   43  A    between atoms: _91  and  _92
REMARK   44  A    between atoms: _92  and  _93
REMARK   45  A    between atoms: _96  and  _98
REMARK   46  A    between atoms: _98  and  _99
REMARK   47  A    between atoms: _98  and  _101
REMARK   48  A    between atoms: _101  and  _102
REMARK   49  A    between atoms: _102  and  _103
REMARK   50  A    between atoms: _103  and  _104
REMARK   51  A    between atoms: _104  and  _105
REMARK   52  A    between atoms: _109  and  _111
REMARK   53  A    between atoms: _111  and  _112
REMARK   54  A    between atoms: _111  and  _114
REMARK   55  A    between atoms: _114  and  _115
REMARK   56  A    between atoms: _118  and  _120
REMARK   57  A    between atoms: _120  and  _121
REMARK   58  A    between atoms: _120  and  _123
REMARK   59  A    between atoms: _123  and  _124
REMARK   60  A    between atoms: _124  and  _125
REMARK   61  A    between atoms: _130  and  _132
REMARK   62  A    between atoms: _132  and  _133
REMARK   63  A    between atoms: _132  and  _135
REMARK   64  A    between atoms: _135  and  _136
REMARK   65  A    between atoms: _139  and  _141
REMARK   66  A    between atoms: _141  and  _142
REMARK   67  A    between atoms: _141  and  _144
REMARK   68  A    between atoms: _144  and  _145
REMARK   69  A    between atoms: _145  and  _146
REMARK   70  A    between atoms: _149  and  _151
REMARK   71  A    between atoms: _151  and  _152
REMARK   72  A    between atoms: _151  and  _154
REMARK   73  A    between atoms: _154  and  _155
REMARK   74  A    between atoms: _158  and  _160
REMARK   75  A    between atoms: _160  and  _161
REMARK   76  A    between atoms: _160  and  _163
REMARK   77  A    between atoms: _163  and  _164
REMARK   78  A    between atoms: _174  and  _176
REMARK   79  A    between atoms: _176  and  _177
REMARK   80  A    between atoms: _176  and  _179
REMARK   81  A    between atoms: _179  and  _180
REMARK   82  A    between atoms: _185  and  _187
REMARK   83  A    between atoms: _187  and  _188
REMARK   84  A    between atoms: _190  and  _192
REMARK   85  A    between atoms: _192  and  _193
REMARK   86  A    between atoms: _192  and  _195
REMARK   87  A    between atoms: _195  and  _196
REMARK   88  A    between atoms: _198  and  _200
REMARK   89  A    between atoms: _200  and  _201
REMARK   90  A    between atoms: _200  and  _203
REMARK   91  A    between atoms: _203  and  _204
REMARK   92  A    between atoms: _204  and  _205
REMARK   93  A    between atoms: _205  and  _206
REMARK   94  A    between atoms: _215  and  _217
REMARK   95  A    between atoms: _217  and  _218
REMARK   96  A    between atoms: _217  and  _220
REMARK   97  A    between atoms: _220  and  _221
REMARK   98  A    between atoms: _226  and  _228
REMARK   99  A    between atoms: _228  and  _229
REMARK  100  A    between atoms: _228  and  _231
REMARK  101  A    between atoms: _231  and  _232
REMARK  102  A    between atoms: _242  and  _244
REMARK  103  A    between atoms: _244  and  _245
REMARK  104  A    between atoms: _244  and  _247
REMARK  105  A    between atoms: _247  and  _248
REMARK  106  A    between atoms: _251  and  _253
REMARK  107  A    between atoms: _253  and  _254
REMARK  108  A    between atoms: _257  and  _259
REMARK  109  A    between atoms: _259  and  _260
REMARK  110  A    between atoms: _264  and  _265
REMARK  111  A    between atoms: _270  and  _272
REMARK  112  A    between atoms: _272  and  _273
REMARK  113  A    between atoms: _272  and  _275
REMARK  114  A    between atoms: _275  and  _276
REMARK  115  A    between atoms: _279  and  _281
REMARK  116  A    between atoms: _281  and  _282
REMARK  117  A    between atoms: _281  and  _284
REMARK  118  A    between atoms: _284  and  _285
REMARK  119  A    between atoms: _288  and  _290
REMARK  120  A    between atoms: _290  and  _291
REMARK  121  A    between atoms: _293  and  _295
REMARK  122  A    between atoms: _295  and  _296
REMARK  123  A    between atoms: _295  and  _298
REMARK  124  A    between atoms: _298  and  _299
REMARK  125  A    between atoms: _304  and  _305
REMARK  126  A    between atoms: _307  and  _309
REMARK  127  A    between atoms: _309  and  _310
REMARK  128  A    between atoms: _309  and  _312
REMARK  129  A    between atoms: _312  and  _313
REMARK  130  A    between atoms: _313  and  _314
REMARK  131  A    between atoms: _316  and  _318
REMARK  132  A    between atoms: _318  and  _319
REMARK  133  A    between atoms: _318  and  _321
REMARK  134  A    between atoms: _321  and  _322
REMARK  135  A    between atoms: _328  and  _330
REMARK  136  A    between atoms: _330  and  _331
REMARK  137  A    between atoms: _333  and  _335
REMARK  138  A    between atoms: _335  and  _336
REMARK  139  A    between atoms: _335  and  _338
REMARK  140  A    between atoms: _338  and  _339
REMARK  141  A    between atoms: _339  and  _340
REMARK  142  A    between atoms: _340  and  _341
REMARK  143  A    between atoms: _341  and  _342
REMARK  144  A    between atoms: _346  and  _348
REMARK  145  A    between atoms: _348  and  _349
REMARK  146  A    between atoms: _351  and  _353
REMARK  147  A    between atoms: _353  and  _354
REMARK  148  A    between atoms: _353  and  _356
REMARK  149  A    between atoms: _356  and  _357
REMARK  150  A    between atoms: _360  and  _362
REMARK  151  A    between atoms: _362  and  _363
REMARK  152  A    between atoms: _362  and  _365
REMARK  153  A    between atoms: _365  and  _366
REMARK  154  A    between atoms: _371  and  _372
REMARK  155  A    between atoms: _374  and  _376
REMARK  156  A    between atoms: _376  and  _377
REMARK  157  A    between atoms: _376  and  _379
REMARK  158  A    between atoms: _379  and  _380
REMARK  159  A    between atoms: _386  and  _388
REMARK  160  A    between atoms: _388  and  _389
REMARK  161  A    between atoms: _392  and  _394
REMARK  162  A    between atoms: _394  and  _395
REMARK  163  A    between atoms: _394  and  _397
REMARK  164  A    between atoms: _397  and  _398
REMARK  165  A    between atoms: _401  and  _403
REMARK  166  A    between atoms: _403  and  _404
REMARK  167  A    between atoms: _403  and  _406
REMARK  168  A    between atoms: _406  and  _407
REMARK  169  A    between atoms: _407  and  _408
REMARK  170  A    between atoms: _410  and  _412
REMARK  171  A    between atoms: _412  and  _413
REMARK  172  A    between atoms: _412  and  _415
REMARK  173  A    between atoms: _415  and  _416
REMARK  174  A    between atoms: _418  and  _420
REMARK  175  A    between atoms: _420  and  _421
REMARK  176  A    between atoms: _420  and  _423
REMARK  177  A    between atoms: _423  and  _424
REMARK  178  A    between atoms: _426  and  _428
REMARK  179  A    between atoms: _428  and  _429
REMARK  180  A    between atoms: _428  and  _431
REMARK  181  A    between atoms: _431  and  _432
REMARK  182  A    between atoms: _432  and  _433
REMARK  183  A    between atoms: _433  and  _434
REMARK  184  A    between atoms: _434  and  _435
REMARK  185  A    between atoms: _439  and  _441
REMARK  186  A    between atoms: _441  and  _442
REMARK  187  A    between atoms: _441  and  _444
REMARK  188  A    between atoms: _444  and  _445
REMARK  189  A    between atoms: _447  and  _449
REMARK  190  A    between atoms: _449  and  _450
REMARK  191  A    between atoms: _453  and  _455
REMARK  192  A    between atoms: _455  and  _456
REMARK  193  A    between atoms: _455  and  _458
REMARK  194  A    between atoms: _458  and  _459
REMARK  195  A    between atoms: _464  and  _466
REMARK  196  A    between atoms: _466  and  _467
REMARK  197  A    between atoms: _466  and  _469
REMARK  198  A    between atoms: _469  and  _470
REMARK  199  A    between atoms: _475  and  _476
REMARK  200  A    between atoms: _478  and  _480
REMARK  201  A    between atoms: _480  and  _481
REMARK  202  A    between atoms: _480  and  _483
REMARK  203  A    between atoms: _485  and  _487
REMARK  204  A    between atoms: _487  and  _488
REMARK  205  A    between atoms: _487  and  _490
REMARK  206  A    between atoms: _490  and  _491
REMARK  207  A    between atoms: _497  and  _499
REMARK  208  A    between atoms: _499  and  _500
REMARK  209  A    between atoms: _499  and  _502
REMARK  210  A    between atoms: _502  and  _503
REMARK  211  A    between atoms: _506  and  _508
REMARK  212  A    between atoms: _508  and  _509
REMARK  213  A    between atoms: _508  and  _511
REMARK  214  A    between atoms: _511  and  _512
REMARK  215  A    between atoms: _515  and  _517
REMARK  216  A    between atoms: _517  and  _518
REMARK  217  A    between atoms: _520  and  _522
REMARK  218  A    between atoms: _522  and  _523
REMARK  219  A    between atoms: _522  and  _525
REMARK  220  A    between atoms: _525  and  _526
REMARK  221  A    between atoms: _529  and  _531
REMARK  222  A    between atoms: _531  and  _532
REMARK  223  A    between atoms: _531  and  _534
REMARK  224  A    between atoms: _534  and  _535
REMARK  225  A    between atoms: _540  and  _541
REMARK  226  A    between atoms: _543  and  _545
REMARK  227  A    between atoms: _545  and  _546
REMARK  228  A    between atoms: _545  and  _548
REMARK  229  A    between atoms: _548  and  _549
REMARK  230  A    between atoms: _554  and  _556
REMARK  231  A    between atoms: _556  and  _557
REMARK  232  A    between atoms: _556  and  _559
REMARK  233  A    between atoms: _559  and  _560
REMARK  234  A    between atoms: _560  and  _561
REMARK  235  A    between atoms: _564  and  _566
REMARK  236  A    between atoms: _566  and  _567
REMARK  237  A    between atoms: _566  and  _569
REMARK  238  A    between atoms: _569  and  _570
REMARK  239  A    between atoms: _575  and  _576
REMARK  240  A    between atoms: _578  and  _580
REMARK  241  A    between atoms: _580  and  _581
REMARK  242  A    between atoms: _580  and  _583
REMARK  243  A    between atoms: _583  and  _584
REMARK                            x       y       z     vdW  Elec       q    Type
REMARK                         _______ _______ _______ _____ _____    ______ ____
ROOT
ATOM      1  CA  ALA A   1      14.514 -21.727   8.026  0.00  0.00    +0.133 C 
ATOM      2  CB  ALA A   1      15.293 -22.964   8.430  0.00  0.00    +0.027 C 
ENDROOT
BRANCH   1   3
ATOM      3  N   ALA A   1      15.379 -20.581   8.177  0.00  0.00    -0.239 NA
ATOM      4  H   ALA A   1      16.307 -20.713   8.628  0.00  0.00    +0.142 HD
ENDBRANCH   1   3
BRANCH   1   5
ATOM      5  C   ALA A   1      13.212 -21.547   8.889  0.00  0.00    +0.224 C 
ATOM      6  O   ALA A   1      13.208 -20.825   9.915  0.00  0.00    -0.287 OA
ENDBRANCH   1   5
TORSDOF 2
REMARK  Name = ../refined-set-2016/4zzy/4zzy_pocket.pdb
REMARK  243 active torsions:
REMARK  status: ('A' for Active; 'I' for Inactive)
REMARK    1  A    between atoms: _1  and  _3
REMARK    2  A    between atoms: _3  and  _4
REMARK    3  A    between atoms: _3  and  _6
REMARK    4  A    between atoms: _6  and  _7
REMARK    5  A    between atoms: _12  and  _13
REMARK    6  A    between atoms: _15  and  _17
REMARK    7  A    between atoms: _17  and  _18
REMARK    8  A    between atoms: _17  and  _20
REMARK    9  A    between atoms: _20  and  _21
REMARK   10  A    between atoms: _24  and  _26
REMARK   11  A    between atoms: _26  and  _27
REMARK   12  A    between atoms: _26  and  _29
REMARK   13  A    between atoms: _29  and  _30
REMARK   14  A    between atoms: _30  and  _31
REMARK   15  A    between atoms: _34  and  _36
REMARK   16  A    between atoms: _36  and  _37
REMARK   17  A    between atoms: _36  and  _39
REMARK   18  A    between atoms: _39  and  _40
REMARK   19  A    between atoms: _40  and  _41
REMARK   20  A    between atoms: _46  and  _48
REMARK   21  A    between atoms: _48  and  _49
REMARK   22  A    between atoms: _48  and  _51
REMARK   23  A    between atoms: _51  and  _52
REMARK   24  A    between atoms: _52  and  _53
REMARK   25  A    between atoms: _53  and  _54
REMARK   26  A    between atoms: _54  and  _55
REMARK   27  A    between atoms: _59  and  _61
REMARK   28  A    between atoms: _61  and  _62
REMARK   29  A    between atoms: _61  and  _64
REMARK   30  A    between atoms: _64  and  _65
REMARK   31  A    between atoms: _65  and  _66
REMARK   32  A    between atoms: _69  and  _71
REMARK   33  A    between atoms: _71  and  _72
REMARK   34  A    between atoms: _71  and  _74
REMARK   35  A    between atoms: _74  and  _75
REMARK   36  A    between atoms: _78  and  _80
REMARK   37  A    between atoms: _80  and  _81
REMARK   38  A    between atoms: _80  and  _83
REMARK   39  A    between atoms: _83  and  _84
REMARK   40  A    between atoms: _86  and  _88
REMARK   41  A    between atoms: _88  and  _89
REMARK   42  A    between atoms: _88  and  _91
REMARK   43  A    between atoms: _91  and  _92
REMARK   44  A    between atoms: _92  and  _93
REMARK   45  A    between atoms: _96  and  _98
REMARK   46  A    between atoms: _98  and  _99
REMARK   47  A    between atoms: _98  and  _101
REMARK   48  A    between atoms: _101  and  _102
REMARK   49  A    between atoms: _102  and  _103
REMARK   50  A    between atoms: _103  and  _104
REMARK   51  A    between atoms: _104  and  _105
REMARK   52  A    between atoms: _109  and  _111
REMARK   53  A    between atoms: _111  and  _112
REMARK   54  A    between atoms: _111  and  _114
REMARK   55  A    between atoms: _114  and  _115
REMARK   56  A    between atoms: _118  and  _120
REMARK   57  A    between atoms: _120  and  _121
REMARK   58  A    between atoms: _120  and  _123
REMARK   59  A    between atoms: _123  and  _124
REMARK   60  A    between atoms: _124  and  _125
REMARK   61  A    between atoms: _130  and  _132
REMARK   62  A    between atoms: _132  and  _133
REMARK   63  A    between atoms: _132  and  _135
REMARK   64  A    between atoms: _135  and  _136
REMARK   65  A    between atoms: _139  and  _141
REMARK   66  A    between atoms: _141  and  _142
REMARK   67  A    between atoms: _141  and  _144
REMARK   68  A    between atoms: _144  and  _145
REMARK   69  A    between atoms: _145  and  _146
REMARK   70  A    between atoms: _149  and  _151
REMARK   71  A    between atoms: _151  and  _152
REMARK   72  A    between atoms: _151  and  _154
REMARK   73  A    between atoms: _154  and  _155
REMARK   74  A    between atoms: _158  and  _160
REMARK   75  A    between atoms: _160  and  _161
REMARK   76  A    between atoms: _160  and  _163
REMARK   77  A    between atoms: _163  and  _164
REMARK   78  A    between atoms: _174  and  _176
REMARK   79  A    between atoms: _176  and  _177
REMARK   80  A    between atoms: _176  and  _179
REMARK   81  A    between atoms: _179  and  _180
REMARK   82  A    between atoms: _185  and  _187
REMARK   83  A    between atoms: _187  and  _188
REMARK   84  A    between atoms: _190  and  _192
REMARK   85  A    between atoms: _192  and  _193
REMARK   86  A    between atoms: _192  and  _195
REMARK   87  A    between atoms: _195  and  _196
REMARK   88  A    between atoms: _198  and  _200
REMARK   89  A    between atoms: _200  and  _201
REMARK   90  A    between atoms: _200  and  _203
REMARK   91  A    between atoms: _203  and  _204
REMARK   92  A    between atoms: _204  and  _205
REMARK   93  A    between atoms: _205  and  _206
REMARK   94  A    between atoms: _215  and  _217
REMARK   95  A    between atoms: _217  and  _218
REMARK   96  A    between atoms: _217  and  _220
REMARK   97  A    between atoms: _220  and  _221
REMARK   98  A    between atoms: _226  and  _228
REMARK   99  A    between atoms: _228  and  _229
REMARK  100  A    between atoms: _228  and  _231
REMARK  101  A    between atoms: _231  and  _232
REMARK  102  A    between atoms: _242  and  _244
REMARK  103  A    between atoms: _244  and  _245
REMARK  104  A    between atoms: _244  and  _247
REMARK  105  A    between atoms: _247  and  _248
REMARK  106  A    between atoms: _251  and  _253
REMARK  107  A    between atoms: _253  and  _254
REMARK  108  A    between atoms: _257  and  _259
REMARK  109  A    between atoms: _259  and  _260
REMARK  110  A    between atoms: _264  and  _265
REMARK  111  A    between atoms: _270  and  _272
REMARK  112  A    between atoms: _272  and  _273
REMARK  113  A    between atoms: _272  and  _275
REMARK  114  A    between atoms: _275  and  _276
REMARK  115  A    between atoms: _279  and  _281
REMARK  116  A    between atoms: _281  and  _282
REMARK  117  A    between atoms: _281  and  _284
REMARK  118  A    between atoms: _284  and  _285
REMARK  119  A    between atoms: _288  and  _290
REMARK  120  A    between atoms: _290  and  _291
REMARK  121  A    between atoms: _293  and  _295
REMARK  122  A    between atoms: _295  and  _296
REMARK  123  A    between atoms: _295  and  _298
REMARK  124  A    between atoms: _298  and  _299
REMARK  125  A    between atoms: _304  and  _305
REMARK  126  A    between atoms: _307  and  _309
REMARK  127  A    between atoms: _309  and  _310
REMARK  128  A    between atoms: _309  and  _312
REMARK  129  A    between atoms: _312  and  _313
REMARK  130  A    between atoms: _313  and  _314
REMARK  131  A    between atoms: _316  and  _318
REMARK  132  A    between atoms: _318  and  _319
REMARK  133  A    between atoms: _318  and  _321
REMARK  134  A    between atoms: _321  and  _322
REMARK  135  A    between atoms: _328  and  _330
REMARK  136  A    between atoms: _330  and  _331
REMARK  137  A    between atoms: _333  and  _335
REMARK  138  A    between atoms: _335  and  _336
REMARK  139  A    between atoms: _335  and  _338
REMARK  140  A    between atoms: _338  and  _339
REMARK  141  A    between atoms: _339  and  _340
REMARK  142  A    between atoms: _340  and  _341
REMARK  143  A    between atoms: _341  and  _342
REMARK  144  A    between atoms: _346  and  _348
REMARK  145  A    between atoms: _348  and  _349
REMARK  146  A    between atoms: _351  and  _353
REMARK  147  A    between atoms: _353  and  _354
REMARK  148  A    between atoms: _353  and  _356
REMARK  149  A    between atoms: _356  and  _357
REMARK  150  A    between atoms: _360  and  _362
REMARK  151  A    between atoms: _362  and  _363
REMARK  152  A    between atoms: _362  and  _365
REMARK  153  A    between atoms: _365  and  _366
REMARK  154  A    between atoms: _371  and  _372
REMARK  155  A    between atoms: _374  and  _376
REMARK  156  A    between atoms: _376  and  _377
REMARK  157  A    between atoms: _376  and  _379
REMARK  158  A    between atoms: _379  and  _380
REMARK  159  A    between atoms: _386  and  _388
REMARK  160  A    between atoms: _388  and  _389
REMARK  161  A    between atoms: _392  and  _394
REMARK  162  A    between atoms: _394  and  _395
REMARK  163  A    between atoms: _394  and  _397
REMARK  164  A    between atoms: _397  and  _398
REMARK  165  A    between atoms: _401  and  _403
REMARK  166  A    between atoms: _403  and  _404
REMARK  167  A    between atoms: _403  and  _406
REMARK  168  A    between atoms: _406  and  _407
REMARK  169  A    between atoms: _407  and  _408
REMARK  170  A    between atoms: _410  and  _412
REMARK  171  A    between atoms: _412  and  _413
REMARK  172  A    between atoms: _412  and  _415
REMARK  173  A    between atoms: _415  and  _416
REMARK  174  A    between atoms: _418  and  _420
REMARK  175  A    between atoms: _420  and  _421
REMARK  176  A    between atoms: _420  and  _423
REMARK  177  A    between atoms: _423  and  _424
REMARK  178  A    between atoms: _426  and  _428
REMARK  179  A    between atoms: _428  and  _429
REMARK  180  A    between atoms: _428  and  _431
REMARK  181  A    between atoms: _431  and  _432
REMARK  182  A    between atoms: _432  and  _433
REMARK  183  A    between atoms: _433  and  _434
REMARK  184  A    between atoms: _434  and  _435
REMARK  185  A    between atoms: _439  and  _441
REMARK  186  A    between atoms: _441  and  _442
REMARK  187  A    between atoms: _441  and  _444
REMARK  188  A    between atoms: _444  and  _445
REMARK  189  A    between atoms: _447  and  _449
REMARK  190  A    between atoms: _449  and  _450
REMARK  191  A    between atoms: _453  and  _455
REMARK  192  A    between atoms: _455  and  _456
REMARK  193  A    between atoms: _455  and  _458
REMARK  194  A    between atoms: _458  and  _459
REMARK  195  A    between atoms: _464  and  _466
REMARK  196  A    between atoms: _466  and  _467
REMARK  197  A    between atoms: _466  and  _469
REMARK  198  A    between atoms: _469  and  _470
REMARK  199  A    between atoms: _475  and  _476
REMARK  200  A    between atoms: _478  and  _480
REMARK  201  A    between atoms: _480  and  _481
REMARK  202  A    between atoms: _480  and  _483
REMARK  203  A    between atoms: _485  and  _487
REMARK  204  A    between atoms: _487  and  _488
REMARK  205  A    between atoms: _487  and  _490
REMARK  206  A    between atoms: _490  and  _491
REMARK  207  A    between atoms: _497  and  _499
REMARK  208  A    between atoms: _499  and  _500
REMARK  209  A    between atoms: _499  and  _502
REMARK  210  A    between atoms: _502  and  _503
REMARK  211  A    between atoms: _506  and  _508
REMARK  212  A    between atoms: _508  and  _509
REMARK  213  A    between atoms: _508  and  _511
REMARK  214  A    between atoms: _511  and  _512
REMARK  215  A    between atoms: _515  and  _517
REMARK  216  A    between atoms: _517  and  _518
REMARK  217  A    between atoms: _520  and  _522
REMARK  218  A    between atoms: _522  and  _523
REMARK  219  A    between atoms: _522  and  _525
REMARK  220  A    between atoms: _525  and  _526
REMARK  221  A    between atoms: _529  and  _531
REMARK  222  A    between atoms: _531  and  _532
REMARK  223  A    between atoms: _531  and  _534
REMARK  224  A    between atoms: _534  and  _535
REMARK  225  A    between atoms: _540  and  _541
REMARK  226  A    between atoms: _543  and  _545
REMARK  227  A    between atoms: _545  and  _546
REMARK  228  A    between atoms: _545  and  _548
REMARK  229  A    between atoms: _548  and  _549
REMARK  230  A    between atoms: _554  and  _556
REMARK  231  A    between atoms: _556  and  _557
REMARK  232  A    between atoms: _556  and  _559
REMARK  233  A    between atoms: _559  and  _560
REMARK  234  A    between atoms: _560  and  _561
REMARK  235  A    between atoms: _564  and  _566
REMARK  236  A    between atoms: _566  and  _567
REMARK  237  A    between atoms: _566  and  _569
REMARK  238  A    between atoms: _569  and  _570
REMARK  239  A    between atoms: _575  and  _576
REMARK  240  A    between atoms: _578  and  _580
REMARK  241  A    between atoms: _580  and  _581
REMARK  242  A    between atoms: _580  and  _583
REMARK  243  A    between atoms: _583  and  _584
REMARK                            x       y       z     vdW  Elec       q    Type
REMARK                         _______ _______ _______ _____ _____    ______ ____
ROOT
ATOM      1  CA  PHE A  14      28.230 -17.822   5.082  0.00  0.00    +0.153 C 
ENDROOT
BRANCH   1   3
ATOM      2  C   TYR A  13      26.162 -18.704   5.792  0.00  0.00    +0.241 C 
ATOM      3  N   PHE A  14      27.373 -18.279   6.137  0.00  0.00    -0.297 N 
ATOM      4  H   PHE A  14      27.686 -18.278   7.129  0.00  0.00    +0.150 HD
ATOM      5  O   TYR A  13      25.818 -18.750   4.604  0.00  0.00    -0.273 OA
BRANCH   2   6
ATOM      6  CA  TYR A  13      25.230 -19.230   6.881  0.00  0.00    +0.153 C 
BRANCH   6   9
ATOM      7  C   ILE A  12      23.363 -17.768   7.569  0.00  0.00    +0.241 C 
ATOM      8  O   ILE A  12      24.013 -17.149   8.410  0.00  0.00    -0.273 OA
ATOM      9  N   TYR A  13      23.902 -18.657   6.723  0.00  0.00    -0.297 N 
ATOM     10  H   TYR A  13      23.336 -18.956   5.903  0.00  0.00    +0.150 HD
BRANCH   7  11
ATOM     11  CA  ILE A  12      21.844 -17.504   7.455  0.00  0.00    +0.149 C 
BRANCH  11  13
ATOM     12  C   GLY A  11      20.618 -18.504   9.308  0.00  0.00    +0.243 C 
ATOM     13  N   ILE A  12      21.333 -17.482   8.825  0.00  0.00    -0.297 N 
ATOM     14  H   ILE A  12      21.528 -16.660   9.432  0.00  0.00    +0.150 HD
ATOM     15  O   GLY A  11      20.361 -19.512   8.651  0.00  0.00    -0.273 OA
BRANCH  12  16
ATOM     16  CA  GLY A  11      20.152 -18.365  10.726  0.00  0.00    +0.176 C 
BRANCH  16  19
ATOM     17  C   LYS A  10      18.739 -19.849  11.968  0.00  0.00    +0.241 C 
ATOM     18  O   LYS A  10      18.044 -18.872  12.391  0.00  0.00    -0.273 OA
ATOM     19  N   GLY A  11      19.807 -19.690  11.200  0.00  0.00    -0.295 N 
ATOM     20  H   GLY A  11      20.393 -20.509  10.940  0.00  0.00    +0.150 HD
BRANCH  17  21
ATOM     21  CA  LYS A  10      18.415 -21.322  12.359  0.00  0.00    +0.149 C 
BRANCH  21  23
ATOM     22  C   GLY A   9      20.374 -22.429  13.404  0.00  0.00    +0.243 C 
ATOM     23  N   LYS A  10      19.234 -21.760  13.494  0.00  0.00    -0.297 N 
ATOM     24  H   LYS A  10      18.892 -21.526  14.448  0.00  0.00    +0.150 HD
ATOM     25  O   GLY A   9      20.924 -22.714  12.317  0.00  0.00    -0.273 OA
BRANCH  22  26
ATOM     26  CA  GLY A   9      20.998 -22.834  14.762  0.00  0.00    +0.176 C 
BRANCH  26  29
ATOM     27  C   PHE A   8      23.432 -22.846  14.694  0.00  0.00    +0.241 C 
ATOM     28  O   PHE A   8      23.451 -21.628  14.879  0.00  0.00    -0.273 OA
ATOM     29  N   GLY A   9      22.296 -23.539  14.604  0.00  0.00    -0.295 N 
ATOM     30  H   GLY A   9      22.319 -24.563  14.425  0.00  0.00    +0.150 HD
BRANCH  27  31
ATOM     31  CA  PHE A   8      24.735 -23.611  14.649  0.00  0.00    +0.153 C 
BRANCH  31  34
ATOM     32  C   MET A   7      25.120 -25.977  14.321  0.00  0.00    +0.241 C 
ATOM     33  O   MET A   7      25.721 -26.042  15.417  0.00  0.00    -0.273 OA
ATOM     34  N   PHE A   8      24.679 -24.825  13.827  0.00  0.00    -0.297 N 
ATOM     35  H   PHE A   8      24.296 -24.784  12.861  0.00  0.00    +0.150 HD
BRANCH  32  36
ATOM     36  CA  MET A   7      24.822 -27.251  13.515  0.00  0.00    +0.149 C 
BRANCH  36  39
ATOM     37  C   TYR A   6      22.415 -26.906  13.137  0.00  0.00    +0.241 C 
ATOM     38  O   TYR A   6      22.305 -26.475  14.245  0.00  0.00    -0.273 OA
ATOM     39  N   MET A   7      23.599 -27.283  12.663  0.00  0.00    -0.297 N 
ATOM     40  H   MET A   7      23.673 -27.607  11.678  0.00  0.00    +0.150 HD
BRANCH  37  41
ATOM     41  CA  TYR A   6      21.173 -27.025  12.202  0.00  0.00    +0.153 C 
BRANCH  41  43
ATOM     42  C   GLY A   5      20.829 -29.411  11.818  0.00  0.00    +0.243 C 
ATOM     43  N   TYR A   6      20.379 -28.268  12.317  0.00  0.00    -0.297 N 
ATOM     44  H   TYR A   6      19.456 -28.245  12.795  0.00  0.00    +0.150 HD
ATOM     45  O   GLY A   5      21.921 -29.498  11.214  0.00  0.00    -0.273 OA
BRANCH  42  46
ATOM     46  CA  GLY A   5      19.929 -30.649  12.009  0.00  0.00    +0.176 C 
BRANCH  46  49
ATOM     47  C   THR A   4      19.700 -30.786  14.423  0.00  0.00    +0.243 C 
ATOM     48  O   THR A   4      20.832 -31.249  14.521  0.00  0.00    -0.273 OA
ATOM     49  N   GLY A   5      19.125 -30.544  13.241  0.00  0.00    -0.295 N 
ATOM     50  H   GLY A   5      18.119 -30.284  13.190  0.00  0.00    +0.150 HD
BRANCH  47  51
ATOM     51  CA  THR A   4      18.897 -30.412  15.662  0.00  0.00    +0.176 C 
BRANCH  51  53
ATOM     52  C   ILE A   3      17.648 -28.441  14.950  0.00  0.00    +0.241 C 
ATOM     53  N   THR A   4      17.657 -29.708  15.351  0.00  0.00    -0.295 N 
ATOM     54  H   THR A   4      16.753 -30.213  15.446  0.00  0.00    +0.150 HD
ATOM     55  O   ILE A   3      18.655 -27.867  14.522  0.00  0.00    -0.273 OA
BRANCH  52  56
ATOM     56  CA  ILE A   3      16.287 -27.688  15.007  0.00  0.00    +0.149 C 
BRANCH  56  58
ATOM     57  C   PRO A   2      14.927 -29.010  13.530  0.00  0.00    +0.241 C 
ATOM     58  N   ILE A   3      15.134 -28.516  14.743  0.00  0.00    -0.297 N 
ATOM     59  H   ILE A   3      14.462 -28.726  15.508  0.00  0.00    +0.150 HD
ATOM     60  O   PRO A   2      15.719 -28.855  12.607  0.00  0.00    -0.273 OA
BRANCH  57  64
ATOM     61  C   ALA A   1      12.484 -27.952  12.095  0.00  0.00    +0.241 C 
ATOM     62  O   ALA A   1      12.681 -27.162  13.036  0.00  0.00    -0.273 OA
ATOM     63  N   PRO A   2      12.903 -29.227  12.121  0.00  0.00    -0.272 N 
ATOM     64  CA  PRO A   2      13.626 -29.772  13.289  0.00  0.00    +0.152 C 
ATOM     65  CB  PRO A   2      13.957 -31.202  12.863  0.00  0.00    +0.031 C 
ATOM     66  CG  PRO A   2      12.909 -31.558  11.840  0.00  0.00    +0.024 C 
ATOM     67  CD  PRO A   2      12.692 -30.262  11.094  0.00  0.00    +0.094 C 
BRANCH  61  68
ATOM     68  CA  ALA A   1      11.708 -27.475  10.844  0.00  0.00    +0.145 C 
ATOM     69  CB  ALA A   1      12.648 -26.850   9.806  0.00  0.00    +0.028 C 
BRANCH  68  70
ATOM     70  N   ALA A   1      10.615 -26.547  11.190  0.00  0.00    -0.238 NA
ATOM     71  H   ALA A   1      10.670 -25.554  10.887  0.00  0.00    +0.142 HD
ENDBRANCH  68  70
ENDBRANCH  61  68
ENDBRANCH  57  64
ENDBRANCH  56  58
BRANCH  56  72
ATOM     72  CB  ILE A   3      16.119 -26.898  16.323  0.00  0.00    +0.027 C 
ATOM     73  CG2 ILE A   3      16.225 -27.833  17.538  0.00  0.00    +0.002 C 
BRANCH  72  74
ATOM     74  CG1 ILE A   3      17.134 -25.732  16.361  0.00  0.00    +0.002 C 
ATOM     75  CD1 ILE A   3      16.531 -24.338  16.324  0.00  0.00    +0.000 C 
ENDBRANCH  72  74
ENDBRANCH  56  72
ENDBRANCH  52  56
ENDBRANCH  51  53
BRANCH  51  76
ATOM     76  CB  THR A   4      18.675 -31.638  16.613  0.00  0.00    +0.137 C 
ATOM     77  CG2 THR A   4      17.352 -31.475  17.401  0.00  0.00    +0.034 C 
BRANCH  76  78
ATOM     78  OG1 THR A   4      18.717 -32.891  15.877  0.00  0.00    -0.382 OA
ATOM     79  HG1 THR A   4      19.600 -32.986  15.440  0.00  0.00    +0.210 HD
ENDBRANCH  76  78
ENDBRANCH  51  76
ENDBRANCH  47  51
ENDBRANCH  46  49
ENDBRANCH  42  46
ENDBRANCH  41  43
BRANCH  41  80
ATOM     80  CB  TYR A   6      20.203 -25.835  12.338  0.00  0.00    +0.055 C 
BRANCH  80  81
ATOM     81  CG  TYR A   6      19.020 -25.971  11.371  0.00  0.00    -0.020 A 
ATOM     82  CD2 TYR A   6      17.966 -26.873  11.638  0.00  0.00    -0.001 A 
ATOM     83  CE2 TYR A   6      16.900 -27.042  10.749  0.00  0.00    +0.036 A 
ATOM     84  CZ  TYR A   6      16.886 -26.315   9.559  0.00  0.00    +0.134 A 
ATOM     85  CE1 TYR A   6      17.945 -25.429   9.258  0.00  0.00    +0.036 A 
ATOM     86  CD1 TYR A   6      19.007 -25.288  10.154  0.00  0.00    -0.001 A 
BRANCH  84  87
ATOM     87  OH  TYR A   6      15.840 -26.478   8.653  0.00  0.00    -0.506 OA
ATOM     88  HH  TYR A   6      15.188 -27.129   9.017  0.00  0.00    +0.292 HD
ENDBRANCH  84  87
ENDBRANCH  80  81
ENDBRANCH  41  80
ENDBRANCH  37  41
ENDBRANCH  36  39
BRANCH  36  89
ATOM     89  CB  MET A   7      26.021 -27.650  12.695  0.00  0.00    +0.041 C 
BRANCH  89  90
ATOM     90  CG  MET A   7      25.811 -28.994  12.039  0.00  0.00    +0.060 C 
BRANCH  90  91
ATOM     91  SD  MET A   7      25.557 -30.210  13.369  0.00  0.00    -0.139 S 
ATOM     92  CE  MET A   7      26.403 -31.527  12.499  0.00  0.00    +0.069 C 
ENDBRANCH  90  91
ENDBRANCH  89  90
ENDBRANCH  36  89
ENDBRANCH  32  36
ENDBRANCH  31  34
BRANCH  31  93
ATOM     93  CB  PHE A   8      25.853 -22.660  14.212  0.00  0.00    +0.055 C 
BRANCH  93  94
ATOM     94  CG  PHE A   8      27.224 -23.271  14.256  0.00  0.00    -0.020 A 
ATOM     95  CD2 PHE A   8      27.878 -23.439  15.458  0.00  0.00    -0.004 A 
ATOM     96  CE2 PHE A   8      29.138 -24.020  15.495  0.00  0.00    -0.000 A 
ATOM     97  CZ  PHE A   8      29.778 -24.413  14.321  0.00  0.00    -0.000 A 
ATOM     98  CE1 PHE A   8      29.133 -24.236  13.099  0.00  0.00    -0.000 A 
ATOM     99  CD1 PHE A   8      27.848 -23.682  13.082  0.00  0.00    -0.004 A 
ENDBRANCH  93  94
ENDBRANCH  31  93
ENDBRANCH  27  31
ENDBRANCH  26  29
ENDBRANCH  22  26
ENDBRANCH  21  23
BRANCH  21 100
ATOM    100  CB  LYS A  10      16.916 -21.463  12.726  0.00  0.00    +0.029 C 
BRANCH 100 101
ATOM    101  CG  LYS A  10      16.401 -22.896  12.565  0.00  0.00    +0.000 C 
BRANCH 101 102
ATOM    102  CD  LYS A  10      14.898 -22.962  12.829  0.00  0.00    -0.024 C 
BRANCH 102 103
ATOM    103  CE  LYS A  10      14.399 -24.396  12.922  0.00  0.00    -0.086 C 
BRANCH 103 104
ATOM    104  NZ  LYS A  10      12.943 -24.405  13.279  0.00  0.00    +0.380 N 
ATOM    105  HZ1 LYS A  10      12.809 -23.934  14.196  0.00  0.00    -0.089 HD
ATOM    106  HZ2 LYS A  10      12.609 -25.388  13.341  0.00  0.00    -0.089 HD
ATOM    107  HZ3 LYS A  10      12.405 -23.900  12.547  0.00  0.00    -0.089 HD
ENDBRANCH 103 104
ENDBRANCH 102 103
ENDBRANCH 101 102
ENDBRANCH 100 101
ENDBRANCH  21 100
ENDBRANCH  17  21
ENDBRANCH  16  19
ENDBRANCH  12  16
ENDBRANCH  11  13
BRANCH  11 108
ATOM    108  CB  ILE A  12      21.459 -16.173   6.737  0.00  0.00    +0.027 C 
ATOM    109  CG2 ILE A  12      21.885 -16.266   5.292  0.00  0.00    +0.002 C 
BRANCH 108 110
ATOM    110  CG1 ILE A  12      19.947 -15.965   6.866  0.00  0.00    +0.002 C 
ATOM    111  CD1 ILE A  12      19.368 -14.533   6.805  0.00  0.00    +0.000 C 
ENDBRANCH 108 110
ENDBRANCH  11 108
ENDBRANCH   7  11
ENDBRANCH   6   9
BRANCH   6 112
ATOM    112  CB  TYR A  13      25.120 -20.779   6.729  0.00  0.00    +0.055 C 
BRANCH 112 113
ATOM    113  CG  TYR A  13      24.561 -21.494   7.960  0.00  0.00    -0.020 A 
ATOM    114  CD2 TYR A  13      25.381 -22.321   8.756  0.00  0.00    -0.001 A 
ATOM    115  CE2 TYR A  13      24.894 -22.939   9.903  0.00  0.00    +0.036 A 
ATOM    116  CZ  TYR A  13      23.584 -22.720  10.277  0.00  0.00    +0.134 A 
ATOM    117  CE1 TYR A  13      22.742 -21.895   9.496  0.00  0.00    +0.036 A 
ATOM    118  CD1 TYR A  13      23.252 -21.313   8.350  0.00  0.00    -0.001 A 
BRANCH 116 119
ATOM    119  OH  TYR A  13      23.064 -23.323  11.391  0.00  0.00    -0.506 OA
ATOM    120  HH  TYR A  13      22.119 -23.051  11.501  0.00  0.00    +0.292 HD
ENDBRANCH 116 119
ENDBRANCH 112 113
ENDBRANCH   6 112
ENDBRANCH   2   6
ENDBRANCH   1   3
BRANCH   1 121
ATOM    121  C   PHE A  14      29.594 -18.470   5.210  0.00  0.00    +0.241 C 
ATOM    122  O   PHE A  14      29.968 -18.879   6.256  0.00  0.00    -0.273 OA
ATOM    123  N   ALA A  15      30.370 -18.529   4.159  0.00  0.00    -0.297 N 
ATOM    124  H   ALA A  15      29.987 -18.304   3.219  0.00  0.00    +0.150 HD
BRANCH 123 125
ATOM    125  CA  ALA A  15      31.779 -18.912   4.303  0.00  0.00    +0.149 C 
ATOM    126  CB  ALA A  15      32.071 -20.091   3.386  0.00  0.00    +0.031 C 
BRANCH 125 127
ATOM    127  C   ALA A  15      32.750 -17.713   4.002  0.00  0.00    +0.241 C 
ATOM    128  N   ASP A  16      34.027 -17.810   4.407  0.00  0.00    -0.297 N 
ATOM    129  H   ASP A  16      34.287 -18.559   5.080  0.00  0.00    +0.150 HD
ATOM    130  O   ALA A  15      32.322 -16.696   3.445  0.00  0.00    -0.273 OA
BRANCH 128 131
ATOM    131  CA  ASP A  16      35.068 -16.889   3.927  0.00  0.00    +0.160 C 
BRANCH 131 132
ATOM    132  C   ASP A  16      35.909 -17.676   2.989  0.00  0.00    +0.241 C 
ATOM    133  N   MET A  17      35.532 -18.950   2.732  0.00  0.00    -0.297 N 
ATOM    134  H   MET A  17      34.754 -19.382   3.270  0.00  0.00    +0.150 HD
ATOM    135  O   ASP A  16      36.873 -17.135   2.442  0.00  0.00    -0.273 OA
BRANCH 133 136
ATOM    136  CA  MET A  17      36.232 -19.731   1.680  0.00  0.00    +0.149 C 
BRANCH 136 137
ATOM    137  C   MET A  17      35.301 -19.993   0.484  0.00  0.00    +0.241 C 
ATOM    138  O   MET A  17      34.265 -20.619   0.659  0.00  0.00    -0.273 OA
ATOM    139  N   SER A  18      35.683 -19.556  -0.724  0.00  0.00    -0.295 N 
ATOM    140  H   SER A  18      36.633 -19.147  -0.838  0.00  0.00    +0.150 HD
BRANCH 139 141
ATOM    141  CA  SER A  18      34.798 -19.639  -1.889  0.00  0.00    +0.178 C 
BRANCH 141 142
ATOM    142  C   SER A  18      34.326 -21.059  -2.213  0.00  0.00    +0.243 C 
ATOM    143  N   SER A  19      35.258 -22.014  -2.189  0.00  0.00    -0.295 N 
ATOM    144  H   SER A  19      36.232 -21.763  -1.925  0.00  0.00    +0.150 HD
ATOM    145  O   SER A  18      33.136 -21.270  -2.466  0.00  0.00    -0.273 OA
BRANCH 143 146
ATOM    146  CA  SER A  19      34.950 -23.399  -2.522  0.00  0.00    +0.178 C 
BRANCH 146 147
ATOM    147  C   SER A  19      34.086 -24.070  -1.471  0.00  0.00    +0.243 C 
ATOM    148  N   LYS A  20      34.136 -23.615  -0.226  0.00  0.00    -0.297 N 
ATOM    149  H   LYS A  20      34.813 -22.878   0.056  0.00  0.00    +0.150 HD
ATOM    150  O   SER A  19      33.337 -24.978  -1.773  0.00  0.00    -0.273 OA
BRANCH 148 151
ATOM    151  CA  LYS A  20      33.209 -24.188   0.720  0.00  0.00    +0.149 C 
BRANCH 151 152
ATOM    152  C   LYS A  20      31.762 -23.827   0.372  0.00  0.00    +0.241 C 
ATOM    153  O   LYS A  20      30.938 -24.738   0.297  0.00  0.00    -0.273 OA
ATOM    154  N   SER A  21      31.421 -22.539   0.187  0.00  0.00    -0.295 N 
ATOM    155  H   SER A  21      32.099 -21.781   0.403  0.00  0.00    +0.150 HD
BRANCH 154 156
ATOM    156  CA  SER A  21      30.058 -22.206  -0.332  0.00  0.00    +0.178 C 
BRANCH 156 157
ATOM    157  C   SER A  21      29.795 -22.819  -1.691  0.00  0.00    +0.243 C 
ATOM    158  O   SER A  21      28.698 -23.237  -1.973  0.00  0.00    -0.273 OA
ATOM    159  N   ALA A  22      30.791 -22.818  -2.562  0.00  0.00    -0.297 N 
ATOM    160  H   ALA A  22      31.714 -22.423  -2.290  0.00  0.00    +0.150 HD
BRANCH 159 161
ATOM    161  CA  ALA A  22      30.607 -23.363  -3.893  0.00  0.00    +0.149 C 
ATOM    162  CB  ALA A  22      31.866 -23.266  -4.723  0.00  0.00    +0.031 C 
BRANCH 161 163
ATOM    163  C   ALA A  22      30.116 -24.804  -3.858  0.00  0.00    +0.241 C 
ATOM    164  N   ASN A  23      30.367 -25.513  -2.747  0.00  0.00    -0.297 N 
ATOM    165  H   ASN A  23      30.816 -25.062  -1.924  0.00  0.00    +0.150 HD
ATOM    166  O   ALA A  22      29.495 -25.258  -4.830  0.00  0.00    -0.273 OA
BRANCH 164 167
ATOM    167  CA  ASN A  23      30.009 -26.901  -2.708  0.00  0.00    +0.158 C 
BRANCH 167 168
ATOM    168  C   ASN A  23      28.478 -26.990  -2.645  0.00  0.00    +0.241 C 
ATOM    169  N   TYR A  24      27.830 -25.910  -2.193  0.00  0.00    -0.297 N 
ATOM    170  H   TYR A  24      28.370 -25.061  -1.931  0.00  0.00    +0.150 HD
ATOM    171  O   ASN A  23      27.892 -27.989  -3.075  0.00  0.00    -0.273 OA
BRANCH 169 172
ATOM    172  CA  TYR A  24      26.370 -25.906  -2.062  0.00  0.00    +0.153 C 
BRANCH 172 173
ATOM    173  C   TYR A  24      25.657 -25.463  -3.330  0.00  0.00    +0.241 C 
ATOM    174  O   TYR A  24      24.448 -25.246  -3.326  0.00  0.00    -0.273 OA
ATOM    175  N   CYS A  25      26.407 -25.335  -4.411  0.00  0.00    -0.296 N 
ATOM    176  H   CYS A  25      27.440 -25.428  -4.334  0.00  0.00    +0.150 HD
BRANCH 175 177
ATOM    177  CA  CYS A  25      25.809 -25.067  -5.697  0.00  0.00    +0.160 C 
BRANCH 177 178
ATOM    178  C   CYS A  25      25.330 -26.362  -6.308  0.00  0.00    +0.242 C 
ATOM    179  N   PHE A  26      25.961 -27.457  -5.876  0.00  0.00    -0.298 N 
ATOM    180  H   PHE A  26      26.644 -27.353  -5.099  0.00  0.00    +0.150 HD
ATOM    181  O   CYS A  25      24.431 -26.357  -7.172  0.00  0.00    -0.273 OA
BRANCH 179 182
ATOM    182  CA  PHE A  26      25.748 -28.790  -6.430  0.00  0.00    +0.141 C 
BRANCH 182 183
ATOM    183  C   PHE A  26      25.838 -28.789  -7.943  0.00  0.00    +0.227 C 
ATOM    184  O   PHE A  26      25.042 -29.449  -8.592  0.00  0.00    -0.286 OA
ENDBRANCH 182 183
BRANCH 182 185
ATOM    185  CB  PHE A  26      24.389 -29.349  -5.981  0.00  0.00    +0.054 C 
BRANCH 185 186
ATOM    186  CG  PHE A  26      24.276 -29.532  -4.488  0.00  0.00    -0.020 A 
ATOM    187  CD2 PHE A  26      23.656 -28.574  -3.696  0.00  0.00    -0.004 A 
ATOM    188  CE2 PHE A  26      23.532 -28.739  -2.316  0.00  0.00    -0.000 A 
ATOM    189  CZ  PHE A  26      24.034 -29.886  -1.710  0.00  0.00    -0.000 A 
ATOM    190  CE1 PHE A  26      24.669 -30.852  -2.483  0.00  0.00    -0.000 A 
ATOM    191  CD1 PHE A  26      24.777 -30.681  -3.868  0.00  0.00    -0.004 A 
ENDBRANCH 185 186
ENDBRANCH 182 185
ENDBRANCH 179 182
ENDBRANCH 177 178
BRANCH 177 192
ATOM    192  CB  CYS A  25      26.795 -24.372  -6.644  0.00  0.00    +0.098 C 
ATOM    193  SG  CYS A  25      27.248 -22.717  -6.055  0.00  0.00    -0.080 S 
ENDBRANCH 177 192
ENDBRANCH 175 177
ENDBRANCH 172 173
BRANCH 172 194
ATOM    194  CB  TYR A  24      25.912 -25.063  -0.884  0.00  0.00    +0.055 C 
BRANCH 194 195
ATOM    195  CG  TYR A  24      26.313 -25.600   0.450  0.00  0.00    -0.020 A 
ATOM    196  CD2 TYR A  24      25.514 -26.526   1.120  0.00  0.00    -0.001 A 
ATOM    197  CE2 TYR A  24      25.884 -27.050   2.355  0.00  0.00    +0.036 A 
ATOM    198  CZ  TYR A  24      27.064 -26.638   2.939  0.00  0.00    +0.134 A 
ATOM    199  CE1 TYR A  24      27.865 -25.695   2.300  0.00  0.00    +0.036 A 
ATOM    200  CD1 TYR A  24      27.498 -25.204   1.049  0.00  0.00    -0.001 A 
BRANCH 198 201
ATOM    201  OH  TYR A  24      27.430 -27.112   4.211  0.00  0.00    -0.506 OA
ATOM    202  HH  TYR A  24      26.760 -27.771   4.522  0.00  0.00    +0.292 HD
ENDBRANCH 198 201
ENDBRANCH 194 195
ENDBRANCH 172 194
ENDBRANCH 169 172
ENDBRANCH 167 168
BRANCH 167 203
ATOM    203  CB  ASN A  23      30.721 -27.666  -1.574  0.00  0.00    +0.114 C 
BRANCH 203 204
ATOM    204  CG  ASN A  23      32.202 -27.961  -1.874  0.00  0.00    +0.222 C 
ATOM    205  ND2 ASN A  23      32.999 -28.022  -0.811  0.00  0.00    -0.329 N 
ATOM    206 HD21 ASN A  23      32.607 -27.879   0.142  0.00  0.00    +0.145 HD
ATOM    207 HD22 ASN A  23      34.014 -28.212  -0.932  0.00  0.00    +0.145 HD
ATOM    208  OD1 ASN A  23      32.630 -28.125  -3.022  0.00  0.00    -0.275 OA
ENDBRANCH 203 204
ENDBRANCH 167 203
ENDBRANCH 164 167
ENDBRANCH 161 163
ENDBRANCH 159 161
ENDBRANCH 156 157
BRANCH 156 209
ATOM    209  CB  SER A  21      29.871 -20.685  -0.490  0.00  0.00    +0.166 C 
BRANCH 209 210
ATOM    210  OG  SER A  21      29.726 -20.088   0.777  0.00  0.00    -0.380 OA
ATOM    211  H   SER A  21      28.934 -20.470   1.232  0.00  0.00    +0.211 HD
ENDBRANCH 209 210
ENDBRANCH 156 209
ENDBRANCH 154 156
ENDBRANCH 151 152
BRANCH 151 212
ATOM    212  CB  LYS A  20      33.544 -23.773   2.103  0.00  0.00    +0.029 C 
BRANCH 212 213
ATOM    213  CG  LYS A  20      32.562 -24.194   3.190  0.00  0.00    +0.000 C 
BRANCH 213 214
ATOM    214  CD  LYS A  20      33.049 -23.761   4.574  0.00  0.00    -0.024 C 
BRANCH 214 215
ATOM    215  CE  LYS A  20      32.176 -24.492   5.607  0.00  0.00    -0.086 C 
BRANCH 215 216
ATOM    216  NZ  LYS A  20      32.492 -24.314   7.042  0.00  0.00    +0.380 N 
ATOM    217  HZ1 LYS A  20      31.821 -24.865   7.614  0.00  0.00    -0.089 HD
ATOM    218  HZ2 LYS A  20      32.416 -23.307   7.290  0.00  0.00    -0.089 HD
ATOM    219  HZ3 LYS A  20      33.460 -24.645   7.226  0.00  0.00    -0.089 HD
ENDBRANCH 215 216
ENDBRANCH 214 215
ENDBRANCH 213 214
ENDBRANCH 212 213
ENDBRANCH 151 212
ENDBRANCH 148 151
ENDBRANCH 146 147
BRANCH 146 220
ATOM    220  CB  SER A  19      36.226 -24.210  -2.711  0.00  0.00    +0.166 C 
BRANCH 220 221
ATOM    221  OG  SER A  19      36.957 -24.258  -1.511  0.00  0.00    -0.380 OA
ATOM    222  H   SER A  19      36.405 -24.682  -0.807  0.00  0.00    +0.211 HD
ENDBRANCH 220 221
ENDBRANCH 146 220
ENDBRANCH 143 146
ENDBRANCH 141 142
BRANCH 141 223
ATOM    223  CB  SER A  18      35.429 -19.046  -3.129  0.00  0.00    +0.166 C 
BRANCH 223 224
ATOM    224  OG  SER A  18      36.473 -19.875  -3.625  0.00  0.00    -0.380 OA
ATOM    225  H   SER A  18      36.865 -19.461  -4.434  0.00  0.00    +0.211 HD
ENDBRANCH 223 224
ENDBRANCH 141 223
ENDBRANCH 139 141
ENDBRANCH 136 137
BRANCH 136 226
ATOM    226  CB  MET A  17      36.826 -21.052   2.241  0.00  0.00    +0.041 C 
BRANCH 226 227
ATOM    227  CG  MET A  17      37.930 -20.896   3.336  0.00  0.00    +0.060 C 
BRANCH 227 228
ATOM    228  SD  MET A  17      39.510 -20.243   2.766  0.00  0.00    -0.139 S 
ATOM    229  CE  MET A  17      40.123 -21.504   1.630  0.00  0.00    +0.069 C 
ENDBRANCH 227 228
ENDBRANCH 226 227
ENDBRANCH 136 226
ENDBRANCH 133 136
ENDBRANCH 131 132
BRANCH 131 230
ATOM    230  CB  ASP A  16      35.925 -16.242   5.055  0.00  0.00    +0.143 C 
BRANCH 230 231
ATOM    231  CG  ASP A  16      36.581 -17.288   6.022  0.00  0.00    +0.367 C 
ATOM    232  OD2 ASP A  16      36.747 -16.965   7.223  0.00  0.00    -0.246 OA
ATOM    233  OD1 ASP A  16      36.879 -18.439   5.588  0.00  0.00    -0.246 OA
ENDBRANCH 230 231
ENDBRANCH 131 230
ENDBRANCH 128 131
ENDBRANCH 125 127
ENDBRANCH 123 125
ENDBRANCH   1 121
BRANCH   1 234
ATOM    234  CB  PHE A  14      28.392 -16.341   5.273  0.00  0.00    +0.055 C 
BRANCH 234 235
ATOM    235  CG  PHE A  14      27.129 -15.567   5.102  0.00  0.00    -0.020 A 
ATOM    236  CD2 PHE A  14      26.340 -15.207   6.222  0.00  0.00    -0.004 A 
ATOM    237  CE2 PHE A  14      25.155 -14.466   6.063  0.00  0.00    -0.000 A 
ATOM    238  CZ  PHE A  14      24.755 -14.100   4.746  0.00  0.00    -0.000 A 
ATOM    239  CE1 PHE A  14      25.558 -14.429   3.649  0.00  0.00    -0.000 A 
ATOM    240  CD1 PHE A  14      26.724 -15.161   3.805  0.00  0.00    -0.004 A 
ENDBRANCH 234 235
ENDBRANCH   1 234
TORSDOF 99
REMARK  Name = ../refined-set-2016/4zzy/4zzy_pocket.pdb
REMARK  243 active torsions:
REMARK  status: ('A' for Active; 'I' for Inactive)
REMARK    1  A    between atoms: _1  and  _3
REMARK    2  A    between atoms: _3  and  _4
REMARK    3  A    between atoms: _3  and  _6
REMARK    4  A    between atoms: _6  and  _7
REMARK    5  A    between atoms: _12  and  _13
REMARK    6  A    between atoms: _15  and  _17
REMARK    7  A    between atoms: _17  and  _18
REMARK    8  A    between atoms: _17  and  _20
REMARK    9  A    between atoms: _20  and  _21
REMARK   10  A    between atoms: _24  and  _26
REMARK   11  A    between atoms: _26  and  _27
REMARK   12  A    between atoms: _26  and  _29
REMARK   13  A    between atoms: _29  and  _30
REMARK   14  A    between atoms: _30  and  _31
REMARK   15  A    between atoms: _34  and  _36
REMARK   16  A    between atoms: _36  and  _37
REMARK   17  A    between atoms: _36  and  _39
REMARK   18  A    between atoms: _39  and  _40
REMARK   19  A    between atoms: _40  and  _41
REMARK   20  A    between atoms: _46  and  _48
REMARK   21  A    between atoms: _48  and  _49
REMARK   22  A    between atoms: _48  and  _51
REMARK   23  A    between atoms: _51  and  _52
REMARK   24  A    between atoms: _52  and  _53
REMARK   25  A    between atoms: _53  and  _54
REMARK   26  A    between atoms: _54  and  _55
REMARK   27  A    between atoms: _59  and  _61
REMARK   28  A    between atoms: _61  and  _62
REMARK   29  A    between atoms: _61  and  _64
REMARK   30  A    between atoms: _64  and  _65
REMARK   31  A    between atoms: _65  and  _66
REMARK   32  A    between atoms: _69  and  _71
REMARK   33  A    between atoms: _71  and  _72
REMARK   34  A    between atoms: _71  and  _74
REMARK   35  A    between atoms: _74  and  _75
REMARK   36  A    between atoms: _78  and  _80
REMARK   37  A    between atoms: _80  and  _81
REMARK   38  A    between atoms: _80  and  _83
REMARK   39  A    between atoms: _83  and  _84
REMARK   40  A    between atoms: _86  and  _88
REMARK   41  A    between atoms: _88  and  _89
REMARK   42  A    between atoms: _88  and  _91
REMARK   43  A    between atoms: _91  and  _92
REMARK   44  A    between atoms: _92  and  _93
REMARK   45  A    between atoms: _96  and  _98
REMARK   46  A    between atoms: _98  and  _99
REMARK   47  A    between atoms: _98  and  _101
REMARK   48  A    between atoms: _101  and  _102
REMARK   49  A    between atoms: _102  and  _103
REMARK   50  A    between atoms: _103  and  _104
REMARK   51  A    between atoms: _104  and  _105
REMARK   52  A    between atoms: _109  and  _111
REMARK   53  A    between atoms: _111  and  _112
REMARK   54  A    between atoms: _111  and  _114
REMARK   55  A    between atoms: _114  and  _115
REMARK   56  A    between atoms: _118  and  _120
REMARK   57  A    between atoms: _120  and  _121
REMARK   58  A    between atoms: _120  and  _123
REMARK   59  A    between atoms: _123  and  _124
REMARK   60  A    between atoms: _124  and  _125
REMARK   61  A    between atoms: _130  and  _132
REMARK   62  A    between atoms: _132  and  _133
REMARK   63  A    between atoms: _132  and  _135
REMARK   64  A    between atoms: _135  and  _136
REMARK   65  A    between atoms: _139  and  _141
REMARK   66  A    between atoms: _141  and  _142
REMARK   67  A    between atoms: _141  and  _144
REMARK   68  A    between atoms: _144  and  _145
REMARK   69  A    between atoms: _145  and  _146
REMARK   70  A    between atoms: _149  and  _151
REMARK   71  A    between atoms: _151  and  _152
REMARK   72  A    between atoms: _151  and  _154
REMARK   73  A    between atoms: _154  and  _155
REMARK   74  A    between atoms: _158  and  _160
REMARK   75  A    between atoms: _160  and  _161
REMARK   76  A    between atoms: _160  and  _163
REMARK   77  A    between atoms: _163  and  _164
REMARK   78  A    between atoms: _174  and  _176
REMARK   79  A    between atoms: _176  and  _177
REMARK   80  A    between atoms: _176  and  _179
REMARK   81  A    between atoms: _179  and  _180
REMARK   82  A    between atoms: _185  and  _187
REMARK   83  A    between atoms: _187  and  _188
REMARK   84  A    between atoms: _190  and  _192
REMARK   85  A    between atoms: _192  and  _193
REMARK   86  A    between atoms: _192  and  _195
REMARK   87  A    between atoms: _195  and  _196
REMARK   88  A    between atoms: _198  and  _200
REMARK   89  A    between atoms: _200  and  _201
REMARK   90  A    between atoms: _200  and  _203
REMARK   91  A    between atoms: _203  and  _204
REMARK   92  A    between atoms: _204  and  _205
REMARK   93  A    between atoms: _205  and  _206
REMARK   94  A    between atoms: _215  and  _217
REMARK   95  A    between atoms: _217  and  _218
REMARK   96  A    between atoms: _217  and  _220
REMARK   97  A    between atoms: _220  and  _221
REMARK   98  A    between atoms: _226  and  _228
REMARK   99  A    between atoms: _228  and  _229
REMARK  100  A    between atoms: _228  and  _231
REMARK  101  A    between atoms: _231  and  _232
REMARK  102  A    between atoms: _242  and  _244
REMARK  103  A    between atoms: _244  and  _245
REMARK  104  A    between atoms: _244  and  _247
REMARK  105  A    between atoms: _247  and  _248
REMARK  106  A    between atoms: _251  and  _253
REMARK  107  A    between atoms: _253  and  _254
REMARK  108  A    between atoms: _257  and  _259
REMARK  109  A    between atoms: _259  and  _260
REMARK  110  A    between atoms: _264  and  _265
REMARK  111  A    between atoms: _270  and  _272
REMARK  112  A    between atoms: _272  and  _273
REMARK  113  A    between atoms: _272  and  _275
REMARK  114  A    between atoms: _275  and  _276
REMARK  115  A    between atoms: _279  and  _281
REMARK  116  A    between atoms: _281  and  _282
REMARK  117  A    between atoms: _281  and  _284
REMARK  118  A    between atoms: _284  and  _285
REMARK  119  A    between atoms: _288  and  _290
REMARK  120  A    between atoms: _290  and  _291
REMARK  121  A    between atoms: _293  and  _295
REMARK  122  A    between atoms: _295  and  _296
REMARK  123  A    between atoms: _295  and  _298
REMARK  124  A    between atoms: _298  and  _299
REMARK  125  A    between atoms: _304  and  _305
REMARK  126  A    between atoms: _307  and  _309
REMARK  127  A    between atoms: _309  and  _310
REMARK  128  A    between atoms: _309  and  _312
REMARK  129  A    between atoms: _312  and  _313
REMARK  130  A    between atoms: _313  and  _314
REMARK  131  A    between atoms: _316  and  _318
REMARK  132  A    between atoms: _318  and  _319
REMARK  133  A    between atoms: _318  and  _321
REMARK  134  A    between atoms: _321  and  _322
REMARK  135  A    between atoms: _328  and  _330
REMARK  136  A    between atoms: _330  and  _331
REMARK  137  A    between atoms: _333  and  _335
REMARK  138  A    between atoms: _335  and  _336
REMARK  139  A    between atoms: _335  and  _338
REMARK  140  A    between atoms: _338  and  _339
REMARK  141  A    between atoms: _339  and  _340
REMARK  142  A    between atoms: _340  and  _341
REMARK  143  A    between atoms: _341  and  _342
REMARK  144  A    between atoms: _346  and  _348
REMARK  145  A    between atoms: _348  and  _349
REMARK  146  A    between atoms: _351  and  _353
REMARK  147  A    between atoms: _353  and  _354
REMARK  148  A    between atoms: _353  and  _356
REMARK  149  A    between atoms: _356  and  _357
REMARK  150  A    between atoms: _360  and  _362
REMARK  151  A    between atoms: _362  and  _363
REMARK  152  A    between atoms: _362  and  _365
REMARK  153  A    between atoms: _365  and  _366
REMARK  154  A    between atoms: _371  and  _372
REMARK  155  A    between atoms: _374  and  _376
REMARK  156  A    between atoms: _376  and  _377
REMARK  157  A    between atoms: _376  and  _379
REMARK  158  A    between atoms: _379  and  _380
REMARK  159  A    between atoms: _386  and  _388
REMARK  160  A    between atoms: _388  and  _389
REMARK  161  A    between atoms: _392  and  _394
REMARK  162  A    between atoms: _394  and  _395
REMARK  163  A    between atoms: _394  and  _397
REMARK  164  A    between atoms: _397  and  _398
REMARK  165  A    between atoms: _401  and  _403
REMARK  166  A    between atoms: _403  and  _404
REMARK  167  A    between atoms: _403  and  _406
REMARK  168  A    between atoms: _406  and  _407
REMARK  169  A    between atoms: _407  and  _408
REMARK  170  A    between atoms: _410  and  _412
REMARK  171  A    between atoms: _412  and  _413
REMARK  172  A    between atoms: _412  and  _415
REMARK  173  A    between atoms: _415  and  _416
REMARK  174  A    between atoms: _418  and  _420
REMARK  175  A    between atoms: _420  and  _421
REMARK  176  A    between atoms: _420  and  _423
REMARK  177  A    between atoms: _423  and  _424
REMARK  178  A    between atoms: _426  and  _428
REMARK  179  A    between atoms: _428  and  _429
REMARK  180  A    between atoms: _428  and  _431
REMARK  181  A    between atoms: _431  and  _432
REMARK  182  A    between atoms: _432  and  _433
REMARK  183  A    between atoms: _433  and  _434
REMARK  184  A    between atoms: _434  and  _435
REMARK  185  A    between atoms: _439  and  _441
REMARK  186  A    between atoms: _441  and  _442
REMARK  187  A    between atoms: _441  and  _444
REMARK  188  A    between atoms: _444  and  _445
REMARK  189  A    between atoms: _447  and  _449
REMARK  190  A    between atoms: _449  and  _450
REMARK  191  A    between atoms: _453  and  _455
REMARK  192  A    between atoms: _455  and  _456
REMARK  193  A    between atoms: _455  and  _458
REMARK  194  A    between atoms: _458  and  _459
REMARK  195  A    between atoms: _464  and  _466
REMARK  196  A    between atoms: _466  and  _467
REMARK  197  A    between atoms: _466  and  _469
REMARK  198  A    between atoms: _469  and  _470
REMARK  199  A    between atoms: _475  and  _476
REMARK  200  A    between atoms: _478  and  _480
REMARK  201  A    between atoms: _480  and  _481
REMARK  202  A    between atoms: _480  and  _483
REMARK  203  A    between atoms: _485  and  _487
REMARK  204  A    between atoms: _487  and  _488
REMARK  205  A    between atoms: _487  and  _490
REMARK  206  A    between atoms: _490  and  _491
REMARK  207  A    between atoms: _497  and  _499
REMARK  208  A    between atoms: _499  and  _500
REMARK  209  A    between atoms: _499  and  _502
REMARK  210  A    between atoms: _502  and  _503
REMARK  211  A    between atoms: _506  and  _508
REMARK  212  A    between atoms: _508  and  _509
REMARK  213  A    between atoms: _508  and  _511
REMARK  214  A    between atoms: _511  and  _512
REMARK  215  A    between atoms: _515  and  _517
REMARK  216  A    between atoms: _517  and  _518
REMARK  217  A    between atoms: _520  and  _522
REMARK  218  A    between atoms: _522  and  _523
REMARK  219  A    between atoms: _522  and  _525
REMARK  220  A    between atoms: _525  and  _526
REMARK  221  A    between atoms: _529  and  _531
REMARK  222  A    between atoms: _531  and  _532
REMARK  223  A    between atoms: _531  and  _534
REMARK  224  A    between atoms: _534  and  _535
REMARK  225  A    between atoms: _540  and  _541
REMARK  226  A    between atoms: _543  and  _545
REMARK  227  A    between atoms: _545  and  _546
REMARK  228  A    between atoms: _545  and  _548
REMARK  229  A    between atoms: _548  and  _549
REMARK  230  A    between atoms: _554  and  _556
REMARK  231  A    between atoms: _556  and  _557
REMARK  232  A    between atoms: _556  and  _559
REMARK  233  A    between atoms: _559  and  _560
REMARK  234  A    between atoms: _560  and  _561
REMARK  235  A    between atoms: _564  and  _566
REMARK  236  A    between atoms: _566  and  _567
REMARK  237  A    between atoms: _566  and  _569
REMARK  238  A    between atoms: _569  and  _570
REMARK  239  A    between atoms: _575  and  _576
REMARK  240  A    between atoms: _578  and  _580
REMARK  241  A    between atoms: _580  and  _581
REMARK  242  A    between atoms: _580  and  _583
REMARK  243  A    between atoms: _583  and  _584
REMARK                            x       y       z     vdW  Elec       q    Type
REMARK                         _______ _______ _______ _____ _____    ______ ____
ROOT
ATOM      1  C   LEU A   1      27.388 -16.244  -5.577  0.00  0.00    +0.238 C 
ATOM      2  N   LEU A   2      26.813 -16.093  -4.445  0.00  0.00    -0.298 N 
ATOM      3  H   LEU A   2      26.581 -16.931  -3.874  0.00  0.00    +0.150 HD
ATOM      4  O   LEU A   1      27.614 -15.315  -6.283  0.00  0.00    -0.274 OA
ENDROOT
BRANCH   1   5
ATOM      5  CA  LEU A   1      27.845 -17.650  -5.969  0.00  0.00    +0.145 C 
BRANCH   5   6
ATOM      6  N   LEU A   1      27.465 -18.006  -7.354  0.00  0.00    -0.238 NA
ATOM      7  H   LEU A   1      27.871 -17.470  -8.147  0.00  0.00    +0.142 HD
ENDBRANCH   5   6
BRANCH   5   8
ATOM      8  CB  LEU A   1      29.384 -17.716  -5.832  0.00  0.00    +0.026 C 
BRANCH   8   9
ATOM      9  CG  LEU A   1      29.907 -19.137  -5.602  0.00  0.00    +0.002 C 
ATOM     10  CD2 LEU A   1      29.485 -19.675  -4.193  0.00  0.00    +0.000 C 
ATOM     11  CD1 LEU A   1      31.438 -19.143  -5.790  0.00  0.00    +0.000 C 
ENDBRANCH   8   9
ENDBRANCH   5   8
ENDBRANCH   1   5
BRANCH   2  12
ATOM     12  CA  LEU A   2      26.481 -14.784  -3.946  0.00  0.00    +0.137 C 
BRANCH  12  13
ATOM     13  C   LEU A   2      27.476 -14.227  -2.925  0.00  0.00    +0.227 C 
ATOM     14  O   LEU A   2      27.819 -14.925  -1.923  0.00  0.00    -0.286 OA
ENDBRANCH  12  13
BRANCH  12  15
ATOM     15  CB  LEU A   2      25.157 -14.860  -3.210  0.00  0.00    +0.028 C 
BRANCH  15  16
ATOM     16  CG  LEU A   2      24.573 -13.545  -2.699  0.00  0.00    +0.002 C 
ATOM     17  CD2 LEU A   2      23.486 -13.933  -1.745  0.00  0.00    +0.000 C 
ATOM     18  CD1 LEU A   2      24.018 -12.549  -3.762  0.00  0.00    +0.000 C 
ENDBRANCH  15  16
ENDBRANCH  12  15
ENDBRANCH   2  12
TORSDOF 8
REMARK  Name = ../refined-set-2016/4zzy/4zzy_pocket.pdb
REMARK  243 active torsions:
REMARK  status: ('A' for Active; 'I' for Inactive)
REMARK    1  A    between atoms: _1  and  _3
REMARK    2  A    between atoms: _3  and  _4
REMARK    3  A    between atoms: _3  and  _6
REMARK    4  A    between atoms: _6  and  _7
REMARK    5  A    between atoms: _12  and  _13
REMARK    6  A    between atoms: _15  and  _17
REMARK    7  A    between atoms: _17  and  _18
REMARK    8  A    between atoms: _17  and  _20
REMARK    9  A    between atoms: _20  and  _21
REMARK   10  A    between atoms: _24  and  _26
REMARK   11  A    between atoms: _26  and  _27
REMARK   12  A    between atoms: _26  and  _29
REMARK   13  A    between atoms: _29  and  _30
REMARK   14  A    between atoms: _30  and  _31
REMARK   15  A    between atoms: _34  and  _36
REMARK   16  A    between atoms: _36  and  _37
REMARK   17  A    between atoms: _36  and  _39
REMARK   18  A    between atoms: _39  and  _40
REMARK   19  A    between atoms: _40  and  _41
REMARK   20  A    between atoms: _46  and  _48
REMARK   21  A    between atoms: _48  and  _49
REMARK   22  A    between atoms: _48  and  _51
REMARK   23  A    between atoms: _51  and  _52
REMARK   24  A    between atoms: _52  and  _53
REMARK   25  A    between atoms: _53  and  _54
REMARK   26  A    between atoms: _54  and  _55
REMARK   27  A    between atoms: _59  and  _61
REMARK   28  A    between atoms: _61  and  _62
REMARK   29  A    between atoms: _61  and  _64
REMARK   30  A    between atoms: _64  and  _65
REMARK   31  A    between atoms: _65  and  _66
REMARK   32  A    between atoms: _69  and  _71
REMARK   33  A    between atoms: _71  and  _72
REMARK   34  A    between atoms: _71  and  _74
REMARK   35  A    between atoms: _74  and  _75
REMARK   36  A    between atoms: _78  and  _80
REMARK   37  A    between atoms: _80  and  _81
REMARK   38  A    between atoms: _80  and  _83
REMARK   39  A    between atoms: _83  and  _84
REMARK   40  A    between atoms: _86  and  _88
REMARK   41  A    between atoms: _88  and  _89
REMARK   42  A    between atoms: _88  and  _91
REMARK   43  A    between atoms: _91  and  _92
REMARK   44  A    between atoms: _92  and  _93
REMARK   45  A    between atoms: _96  and  _98
REMARK   46  A    between atoms: _98  and  _99
REMARK   47  A    between atoms: _98  and  _101
REMARK   48  A    between atoms: _101  and  _102
REMARK   49  A    between atoms: _102  and  _103
REMARK   50  A    between atoms: _103  and  _104
REMARK   51  A    between atoms: _104  and  _105
REMARK   52  A    between atoms: _109  and  _111
REMARK   53  A    between atoms: _111  and  _112
REMARK   54  A    between atoms: _111  and  _114
REMARK   55  A    between atoms: _114  and  _115
REMARK   56  A    between atoms: _118  and  _120
REMARK   57  A    between atoms: _120  and  _121
REMARK   58  A    between atoms: _120  and  _123
REMARK   59  A    between atoms: _123  and  _124
REMARK   60  A    between atoms: _124  and  _125
REMARK   61  A    between atoms: _130  and  _132
REMARK   62  A    between atoms: _132  and  _133
REMARK   63  A    between atoms: _132  and  _135
REMARK   64  A    between atoms: _135  and  _136
REMARK   65  A    between atoms: _139  and  _141
REMARK   66  A    between atoms: _141  and  _142
REMARK   67  A    between atoms: _141  and  _144
REMARK   68  A    between atoms: _144  and  _145
REMARK   69  A    between atoms: _145  and  _146
REMARK   70  A    between atoms: _149  and  _151
REMARK   71  A    between atoms: _151  and  _152
REMARK   72  A    between atoms: _151  and  _154
REMARK   73  A    between atoms: _154  and  _155
REMARK   74  A    between atoms: _158  and  _160
REMARK   75  A    between atoms: _160  and  _161
REMARK   76  A    between atoms: _160  and  _163
REMARK   77  A    between atoms: _163  and  _164
REMARK   78  A    between atoms: _174  and  _176
REMARK   79  A    between atoms: _176  and  _177
REMARK   80  A    between atoms: _176  and  _179
REMARK   81  A    between atoms: _179  and  _180
REMARK   82  A    between atoms: _185  and  _187
REMARK   83  A    between atoms: _187  and  _188
REMARK   84  A    between atoms: _190  and  _192
REMARK   85  A    between atoms: _192  and  _193
REMARK   86  A    between atoms: _192  and  _195
REMARK   87  A    between atoms: _195  and  _196
REMARK   88  A    between atoms: _198  and  _200
REMARK   89  A    between atoms: _200  and  _201
REMARK   90  A    between atoms: _200  and  _203
REMARK   91  A    between atoms: _203  and  _204
REMARK   92  A    between atoms: _204  and  _205
REMARK   93  A    between atoms: _205  and  _206
REMARK   94  A    between atoms: _215  and  _217
REMARK   95  A    between atoms: _217  and  _218
REMARK   96  A    between atoms: _217  and  _220
REMARK   97  A    between atoms: _220  and  _221
REMARK   98  A    between atoms: _226  and  _228
REMARK   99  A    between atoms: _228  and  _229
REMARK  100  A    between atoms: _228  and  _231
REMARK  101  A    between atoms: _231  and  _232
REMARK  102  A    between atoms: _242  and  _244
REMARK  103  A    between atoms: _244  and  _245
REMARK  104  A    between atoms: _244  and  _247
REMARK  105  A    between atoms: _247  and  _248
REMARK  106  A    between atoms: _251  and  _253
REMARK  107  A    between atoms: _253  and  _254
REMARK  108  A    between atoms: _257  and  _259
REMARK  109  A    between atoms: _259  and  _260
REMARK  110  A    between atoms: _264  and  _265
REMARK  111  A    between atoms: _270  and  _272
REMARK  112  A    between atoms: _272  and  _273
REMARK  113  A    between atoms: _272  and  _275
REMARK  114  A    between atoms: _275  and  _276
REMARK  115  A    between atoms: _279  and  _281
REMARK  116  A    between atoms: _281  and  _282
REMARK  117  A    between atoms: _281  and  _284
REMARK  118  A    between atoms: _284  and  _285
REMARK  119  A    between atoms: _288  and  _290
REMARK  120  A    between atoms: _290  and  _291
REMARK  121  A    between atoms: _293  and  _295
REMARK  122  A    between atoms: _295  and  _296
REMARK  123  A    between atoms: _295  and  _298
REMARK  124  A    between atoms: _298  and  _299
REMARK  125  A    between atoms: _304  and  _305
REMARK  126  A    between atoms: _307  and  _309
REMARK  127  A    between atoms: _309  and  _310
REMARK  128  A    between atoms: _309  and  _312
REMARK  129  A    between atoms: _312  and  _313
REMARK  130  A    between atoms: _313  and  _314
REMARK  131  A    between atoms: _316  and  _318
REMARK  132  A    between atoms: _318  and  _319
REMARK  133  A    between atoms: _318  and  _321
REMARK  134  A    between atoms: _321  and  _322
REMARK  135  A    between atoms: _328  and  _330
REMARK  136  A    between atoms: _330  and  _331
REMARK  137  A    between atoms: _333  and  _335
REMARK  138  A    between atoms: _335  and  _336
REMARK  139  A    between atoms: _335  and  _338
REMARK  140  A    between atoms: _338  and  _339
REMARK  141  A    between atoms: _339  and  _340
REMARK  142  A    between atoms: _340  and  _341
REMARK  143  A    between atoms: _341  and  _342
REMARK  144  A    between atoms: _346  and  _348
REMARK  145  A    between atoms: _348  and  _349
REMARK  146  A    between atoms: _351  and  _353
REMARK  147  A    between atoms: _353  and  _354
REMARK  148  A    between atoms: _353  and  _356
REMARK  149  A    between atoms: _356  and  _357
REMARK  150  A    between atoms: _360  and  _362
REMARK  151  A    between atoms: _362  and  _363
REMARK  152  A    between atoms: _362  and  _365
REMARK  153  A    between atoms: _365  and  _366
REMARK  154  A    between atoms: _371  and  _372
REMARK  155  A    between atoms: _374  and  _376
REMARK  156  A    between atoms: _376  and  _377
REMARK  157  A    between atoms: _376  and  _379
REMARK  158  A    between atoms: _379  and  _380
REMARK  159  A    between atoms: _386  and  _388
REMARK  160  A    between atoms: _388  and  _389
REMARK  161  A    between atoms: _392  and  _394
REMARK  162  A    between atoms: _394  and  _395
REMARK  163  A    between atoms: _394  and  _397
REMARK  164  A    between atoms: _397  and  _398
REMARK  165  A    between atoms: _401  and  _403
REMARK  166  A    between atoms: _403  and  _404
REMARK  167  A    between atoms: _403  and  _406
REMARK  168  A    between atoms: _406  and  _407
REMARK  169  A    between atoms: _407  and  _408
REMARK  170  A    between atoms: _410  and  _412
REMARK  171  A    between atoms: _412  and  _413
REMARK  172  A    between atoms: _412  and  _415
REMARK  173  A    between atoms: _415  and  _416
REMARK  174  A    between atoms: _418  and  _420
REMARK  175  A    between atoms: _420  and  _421
REMARK  176  A    between atoms: _420  and  _423
REMARK  177  A    between atoms: _423  and  _424
REMARK  178  A    between atoms: _426  and  _428
REMARK  179  A    between atoms: _428  and  _429
REMARK  180  A    between atoms: _428  and  _431
REMARK  181  A    between atoms: _431  and  _432
REMARK  182  A    between atoms: _432  and  _433
REMARK  183  A    between atoms: _433  and  _434
REMARK  184  A    between atoms: _434  and  _435
REMARK  185  A    between atoms: _439  and  _441
REMARK  186  A    between atoms: _441  and  _442
REMARK  187  A    between atoms: _441  and  _444
REMARK  188  A    between atoms: _444  and  _445
REMARK  189  A    between atoms: _447  and  _449
REMARK  190  A    between atoms: _449  and  _450
REMARK  191  A    between atoms: _453  and  _455
REMARK  192  A    between atoms: _455  and  _456
REMARK  193  A    between atoms: _455  and  _458
REMARK  194  A    between atoms: _458  and  _459
REMARK  195  A    between atoms: _464  and  _466
REMARK  196  A    between atoms: _466  and  _467
REMARK  197  A    between atoms: _466  and  _469
REMARK  198  A    between atoms: _469  and  _470
REMARK  199  A    between atoms: _475  and  _476
REMARK  200  A    between atoms: _478  and  _480
REMARK  201  A    between atoms: _480  and  _481
REMARK  202  A    between atoms: _480  and  _483
REMARK  203  A    between atoms: _485  and  _487
REMARK  204  A    between atoms: _487  and  _488
REMARK  205  A    between atoms: _487  and  _490
REMARK  206  A    between atoms: _490  and  _491
REMARK  207  A    between atoms: _497  and  _499
REMARK  208  A    between atoms: _499  and  _500
REMARK  209  A    between atoms: _499  and  _502
REMARK  210  A    between atoms: _502  and  _503
REMARK  211  A    between atoms: _506  and  _508
REMARK  212  A    between atoms: _508  and  _509
REMARK  213  A    between atoms: _508  and  _511
REMARK  214  A    between atoms: _511  and  _512
REMARK  215  A    between atoms: _515  and  _517
REMARK  216  A    between atoms: _517  and  _518
REMARK  217  A    between atoms: _520  and  _522
REMARK  218  A    between atoms: _522  and  _523
REMARK  219  A    between atoms: _522  and  _525
REMARK  220  A    between atoms: _525  and  _526
REMARK  221  A    between atoms: _529  and  _531
REMARK  222  A    between atoms: _531  and  _532
REMARK  223  A    between atoms: _531  and  _534
REMARK  224  A    between atoms: _534  and  _535
REMARK  225  A    between atoms: _540  and  _541
REMARK  226  A    between atoms: _543  and  _545
REMARK  227  A    between atoms: _545  and  _546
REMARK  228  A    between atoms: _545  and  _548
REMARK  229  A    between atoms: _548  and  _549
REMARK  230  A    between atoms: _554  and  _556
REMARK  231  A    between atoms: _556  and  _557
REMARK  232  A    between atoms: _556  and  _559
REMARK  233  A    between atoms: _559  and  _560
REMARK  234  A    between atoms: _560  and  _561
REMARK  235  A    between atoms: _564  and  _566
REMARK  236  A    between atoms: _566  and  _567
REMARK  237  A    between atoms: _566  and  _569
REMARK  238  A    between atoms: _569  and  _570
REMARK  239  A    between atoms: _575  and  _576
REMARK  240  A    between atoms: _578  and  _580
REMARK  241  A    between atoms: _580  and  _581
REMARK  242  A    between atoms: _580  and  _583
REMARK  243  A    between atoms: _583  and  _584
REMARK                            x       y       z     vdW  Elec       q    Type
REMARK                         _______ _______ _______ _____ _____    ______ ____
ROOT
ATOM      1  CA  GLY A   1      32.219 -21.479  13.900  0.00  0.00    +0.156 C 
ENDROOT
BRANCH   1   2
ATOM      2  N   GLY A   1      31.721 -20.153  13.622  0.00  0.00    -0.238 NA
ATOM      3  H   GLY A   1      31.324 -19.922  12.689  0.00  0.00    +0.142 HD
ENDBRANCH   1   2
BRANCH   1   4
ATOM      4  C   GLY A   1      33.626 -21.508  13.428  0.00  0.00    +0.226 C 
ATOM      5  O   GLY A   1      33.902 -21.193  12.252  0.00  0.00    -0.287 OA
ENDBRANCH   1   4
TORSDOF 2
REMARK  Name = ../refined-set-2016/4zzy/4zzy_pocket.pdb
REMARK  243 active torsions:
REMARK  status: ('A' for Active; 'I' for Inactive)
REMARK    1  A    between atoms: _1  and  _3
REMARK    2  A    between atoms: _3  and  _4
REMARK    3  A    between atoms: _3  and  _6
REMARK    4  A    between atoms: _6  and  _7
REMARK    5  A    between atoms: _12  and  _13
REMARK    6  A    between atoms: _15  and  _17
REMARK    7  A    between atoms: _17  and  _18
REMARK    8  A    between atoms: _17  and  _20
REMARK    9  A    between atoms: _20  and  _21
REMARK   10  A    between atoms: _24  and  _26
REMARK   11  A    between atoms: _26  and  _27
REMARK   12  A    between atoms: _26  and  _29
REMARK   13  A    between atoms: _29  and  _30
REMARK   14  A    between atoms: _30  and  _31
REMARK   15  A    between atoms: _34  and  _36
REMARK   16  A    between atoms: _36  and  _37
REMARK   17  A    between atoms: _36  and  _39
REMARK   18  A    between atoms: _39  and  _40
REMARK   19  A    between atoms: _40  and  _41
REMARK   20  A    between atoms: _46  and  _48
REMARK   21  A    between atoms: _48  and  _49
REMARK   22  A    between atoms: _48  and  _51
REMARK   23  A    between atoms: _51  and  _52
REMARK   24  A    between atoms: _52  and  _53
REMARK   25  A    between atoms: _53  and  _54
REMARK   26  A    between atoms: _54  and  _55
REMARK   27  A    between atoms: _59  and  _61
REMARK   28  A    between atoms: _61  and  _62
REMARK   29  A    between atoms: _61  and  _64
REMARK   30  A    between atoms: _64  and  _65
REMARK   31  A    between atoms: _65  and  _66
REMARK   32  A    between atoms: _69  and  _71
REMARK   33  A    between atoms: _71  and  _72
REMARK   34  A    between atoms: _71  and  _74
REMARK   35  A    between atoms: _74  and  _75
REMARK   36  A    between atoms: _78  and  _80
REMARK   37  A    between atoms: _80  and  _81
REMARK   38  A    between atoms: _80  and  _83
REMARK   39  A    between atoms: _83  and  _84
REMARK   40  A    between atoms: _86  and  _88
REMARK   41  A    between atoms: _88  and  _89
REMARK   42  A    between atoms: _88  and  _91
REMARK   43  A    between atoms: _91  and  _92
REMARK   44  A    between atoms: _92  and  _93
REMARK   45  A    between atoms: _96  and  _98
REMARK   46  A    between atoms: _98  and  _99
REMARK   47  A    between atoms: _98  and  _101
REMARK   48  A    between atoms: _101  and  _102
REMARK   49  A    between atoms: _102  and  _103
REMARK   50  A    between atoms: _103  and  _104
REMARK   51  A    between atoms: _104  and  _105
REMARK   52  A    between atoms: _109  and  _111
REMARK   53  A    between atoms: _111  and  _112
REMARK   54  A    between atoms: _111  and  _114
REMARK   55  A    between atoms: _114  and  _115
REMARK   56  A    between atoms: _118  and  _120
REMARK   57  A    between atoms: _120  and  _121
REMARK   58  A    between atoms: _120  and  _123
REMARK   59  A    between atoms: _123  and  _124
REMARK   60  A    between atoms: _124  and  _125
REMARK   61  A    between atoms: _130  and  _132
REMARK   62  A    between atoms: _132  and  _133
REMARK   63  A    between atoms: _132  and  _135
REMARK   64  A    between atoms: _135  and  _136
REMARK   65  A    between atoms: _139  and  _141
REMARK   66  A    between atoms: _141  and  _142
REMARK   67  A    between atoms: _141  and  _144
REMARK   68  A    between atoms: _144  and  _145
REMARK   69  A    between atoms: _145  and  _146
REMARK   70  A    between atoms: _149  and  _151
REMARK   71  A    between atoms: _151  and  _152
REMARK   72  A    between atoms: _151  and  _154
REMARK   73  A    between atoms: _154  and  _155
REMARK   74  A    between atoms: _158  and  _160
REMARK   75  A    between atoms: _160  and  _161
REMARK   76  A    between atoms: _160  and  _163
REMARK   77  A    between atoms: _163  and  _164
REMARK   78  A    between atoms: _174  and  _176
REMARK   79  A    between atoms: _176  and  _177
REMARK   80  A    between atoms: _176  and  _179
REMARK   81  A    between atoms: _179  and  _180
REMARK   82  A    between atoms: _185  and  _187
REMARK   83  A    between atoms: _187  and  _188
REMARK   84  A    between atoms: _190  and  _192
REMARK   85  A    between atoms: _192  and  _193
REMARK   86  A    between atoms: _192  and  _195
REMARK   87  A    between atoms: _195  and  _196
REMARK   88  A    between atoms: _198  and  _200
REMARK   89  A    between atoms: _200  and  _201
REMARK   90  A    between atoms: _200  and  _203
REMARK   91  A    between atoms: _203  and  _204
REMARK   92  A    between atoms: _204  and  _205
REMARK   93  A    between atoms: _205  and  _206
REMARK   94  A    between atoms: _215  and  _217
REMARK   95  A    between atoms: _217  and  _218
REMARK   96  A    between atoms: _217  and  _220
REMARK   97  A    between atoms: _220  and  _221
REMARK   98  A    between atoms: _226  and  _228
REMARK   99  A    between atoms: _228  and  _229
REMARK  100  A    between atoms: _228  and  _231
REMARK  101  A    between atoms: _231  and  _232
REMARK  102  A    between atoms: _242  and  _244
REMARK  103  A    between atoms: _244  and  _245
REMARK  104  A    between atoms: _244  and  _247
REMARK  105  A    between atoms: _247  and  _248
REMARK  106  A    between atoms: _251  and  _253
REMARK  107  A    between atoms: _253  and  _254
REMARK  108  A    between atoms: _257  and  _259
REMARK  109  A    between atoms: _259  and  _260
REMARK  110  A    between atoms: _264  and  _265
REMARK  111  A    between atoms: _270  and  _272
REMARK  112  A    between atoms: _272  and  _273
REMARK  113  A    between atoms: _272  and  _275
REMARK  114  A    between atoms: _275  and  _276
REMARK  115  A    between atoms: _279  and  _281
REMARK  116  A    between atoms: _281  and  _282
REMARK  117  A    between atoms: _281  and  _284
REMARK  118  A    between atoms: _284  and  _285
REMARK  119  A    between atoms: _288  and  _290
REMARK  120  A    between atoms: _290  and  _291
REMARK  121  A    between atoms: _293  and  _295
REMARK  122  A    between atoms: _295  and  _296
REMARK  123  A    between atoms: _295  and  _298
REMARK  124  A    between atoms: _298  and  _299
REMARK  125  A    between atoms: _304  and  _305
REMARK  126  A    between atoms: _307  and  _309
REMARK  127  A    between atoms: _309  and  _310
REMARK  128  A    between atoms: _309  and  _312
REMARK  129  A    between atoms: _312  and  _313
REMARK  130  A    between atoms: _313  and  _314
REMARK  131  A    between atoms: _316  and  _318
REMARK  132  A    between atoms: _318  and  _319
REMARK  133  A    between atoms: _318  and  _321
REMARK  134  A    between atoms: _321  and  _322
REMARK  135  A    between atoms: _328  and  _330
REMARK  136  A    between atoms: _330  and  _331
REMARK  137  A    between atoms: _333  and  _335
REMARK  138  A    between atoms: _335  and  _336
REMARK  139  A    between atoms: _335  and  _338
REMARK  140  A    between atoms: _338  and  _339
REMARK  141  A    between atoms: _339  and  _340
REMARK  142  A    between atoms: _340  and  _341
REMARK  143  A    between atoms: _341  and  _342
REMARK  144  A    between atoms: _346  and  _348
REMARK  145  A    between atoms: _348  and  _349
REMARK  146  A    between atoms: _351  and  _353
REMARK  147  A    between atoms: _353  and  _354
REMARK  148  A    between atoms: _353  and  _356
REMARK  149  A    between atoms: _356  and  _357
REMARK  150  A    between atoms: _360  and  _362
REMARK  151  A    between atoms: _362  and  _363
REMARK  152  A    between atoms: _362  and  _365
REMARK  153  A    between atoms: _365  and  _366
REMARK  154  A    between atoms: _371  and  _372
REMARK  155  A    between atoms: _374  and  _376
REMARK  156  A    between atoms: _376  and  _377
REMARK  157  A    between atoms: _376  and  _379
REMARK  158  A    between atoms: _379  and  _380
REMARK  159  A    between atoms: _386  and  _388
REMARK  160  A    between atoms: _388  and  _389
REMARK  161  A    between atoms: _392  and  _394
REMARK  162  A    between atoms: _394  and  _395
REMARK  163  A    between atoms: _394  and  _397
REMARK  164  A    between atoms: _397  and  _398
REMARK  165  A    between atoms: _401  and  _403
REMARK  166  A    between atoms: _403  and  _404
REMARK  167  A    between atoms: _403  and  _406
REMARK  168  A    between atoms: _406  and  _407
REMARK  169  A    between atoms: _407  and  _408
REMARK  170  A    between atoms: _410  and  _412
REMARK  171  A    between atoms: _412  and  _413
REMARK  172  A    between atoms: _412  and  _415
REMARK  173  A    between atoms: _415  and  _416
REMARK  174  A    between atoms: _418  and  _420
REMARK  175  A    between atoms: _420  and  _421
REMARK  176  A    between atoms: _420  and  _423
REMARK  177  A    between atoms: _423  and  _424
REMARK  178  A    between atoms: _426  and  _428
REMARK  179  A    between atoms: _428  and  _429
REMARK  180  A    between atoms: _428  and  _431
REMARK  181  A    between atoms: _431  and  _432
REMARK  182  A    between atoms: _432  and  _433
REMARK  183  A    between atoms: _433  and  _434
REMARK  184  A    between atoms: _434  and  _435
REMARK  185  A    between atoms: _439  and  _441
REMARK  186  A    between atoms: _441  and  _442
REMARK  187  A    between atoms: _441  and  _444
REMARK  188  A    between atoms: _444  and  _445
REMARK  189  A    between atoms: _447  and  _449
REMARK  190  A    between atoms: _449  and  _450
REMARK  191  A    between atoms: _453  and  _455
REMARK  192  A    between atoms: _455  and  _456
REMARK  193  A    between atoms: _455  and  _458
REMARK  194  A    between atoms: _458  and  _459
REMARK  195  A    between atoms: _464  and  _466
REMARK  196  A    between atoms: _466  and  _467
REMARK  197  A    between atoms: _466  and  _469
REMARK  198  A    between atoms: _469  and  _470
REMARK  199  A    between atoms: _475  and  _476
REMARK  200  A    between atoms: _478  and  _480
REMARK  201  A    between atoms: _480  and  _481
REMARK  202  A    between atoms: _480  and  _483
REMARK  203  A    between atoms: _485  and  _487
REMARK  204  A    between atoms: _487  and  _488
REMARK  205  A    between atoms: _487  and  _490
REMARK  206  A    between atoms: _490  and  _491
REMARK  207  A    between atoms: _497  and  _499
REMARK  208  A    between atoms: _499  and  _500
REMARK  209  A    between atoms: _499  and  _502
REMARK  210  A    between atoms: _502  and  _503
REMARK  211  A    between atoms: _506  and  _508
REMARK  212  A    between atoms: _508  and  _509
REMARK  213  A    between atoms: _508  and  _511
REMARK  214  A    between atoms: _511  and  _512
REMARK  215  A    between atoms: _515  and  _517
REMARK  216  A    between atoms: _517  and  _518
REMARK  217  A    between atoms: _520  and  _522
REMARK  218  A    between atoms: _522  and  _523
REMARK  219  A    between atoms: _522  and  _525
REMARK  220  A    between atoms: _525  and  _526
REMARK  221  A    between atoms: _529  and  _531
REMARK  222  A    between atoms: _531  and  _532
REMARK  223  A    between atoms: _531  and  _534
REMARK  224  A    between atoms: _534  and  _535
REMARK  225  A    between atoms: _540  and  _541
REMARK  226  A    between atoms: _543  and  _545
REMARK  227  A    between atoms: _545  and  _546
REMARK  228  A    between atoms: _545  and  _548
REMARK  229  A    between atoms: _548  and  _549
REMARK  230  A    between atoms: _554  and  _556
REMARK  231  A    between atoms: _556  and  _557
REMARK  232  A    between atoms: _556  and  _559
REMARK  233  A    between atoms: _559  and  _560
REMARK  234  A    between atoms: _560  and  _561
REMARK  235  A    between atoms: _564  and  _566
REMARK  236  A    between atoms: _566  and  _567
REMARK  237  A    between atoms: _566  and  _569
REMARK  238  A    between atoms: _569  and  _570
REMARK  239  A    between atoms: _575  and  _576
REMARK  240  A    between atoms: _578  and  _580
REMARK  241  A    between atoms: _580  and  _581
REMARK  242  A    between atoms: _580  and  _583
REMARK  243  A    between atoms: _583  and  _584
REMARK                            x       y       z     vdW  Elec       q    Type
REMARK                         _______ _______ _______ _____ _____    ______ ____
ROOT
ATOM      1  CA  LEU A   1      35.569 -27.401  11.466  0.00  0.00    +0.133 C 
ENDROOT
BRANCH   1   2
ATOM      2  N   LEU A   1      35.928 -27.980  12.767  0.00  0.00    -0.239 NA
ATOM      3  H   LEU A   1      35.760 -27.438  13.638  0.00  0.00    +0.142 HD
ENDBRANCH   1   2
BRANCH   1   4
ATOM      4  C   LEU A   1      36.789 -27.203  10.622  0.00  0.00    +0.224 C 
ATOM      5  O   LEU A   1      37.815 -26.718  11.138  0.00  0.00    -0.287 OA
ENDBRANCH   1   4
BRANCH   1   6
ATOM      6  CB  LEU A   1      34.830 -26.074  11.661  0.00  0.00    +0.025 C 
BRANCH   6   7
ATOM      7  CG  LEU A   1      33.305 -26.119  11.682  0.00  0.00    +0.002 C 
ATOM      8  CD2 LEU A   1      32.758 -24.807  12.161  0.00  0.00    +0.000 C 
ATOM      9  CD1 LEU A   1      32.712 -26.507  10.293  0.00  0.00    +0.000 C 
ENDBRANCH   6   7
ENDBRANCH   1   6
TORSDOF 4
REMARK  Name = ../refined-set-2016/4zzy/4zzy_pocket.pdb
REMARK  243 active torsions:
REMARK  status: ('A' for Active; 'I' for Inactive)
REMARK    1  A    between atoms: _1  and  _3
REMARK    2  A    between atoms: _3  and  _4
REMARK    3  A    between atoms: _3  and  _6
REMARK    4  A    between atoms: _6  and  _7
REMARK    5  A    between atoms: _12  and  _13
REMARK    6  A    between atoms: _15  and  _17
REMARK    7  A    between atoms: _17  and  _18
REMARK    8  A    between atoms: _17  and  _20
REMARK    9  A    between atoms: _20  and  _21
REMARK   10  A    between atoms: _24  and  _26
REMARK   11  A    between atoms: _26  and  _27
REMARK   12  A    between atoms: _26  and  _29
REMARK   13  A    between atoms: _29  and  _30
REMARK   14  A    between atoms: _30  and  _31
REMARK   15  A    between atoms: _34  and  _36
REMARK   16  A    between atoms: _36  and  _37
REMARK   17  A    between atoms: _36  and  _39
REMARK   18  A    between atoms: _39  and  _40
REMARK   19  A    between atoms: _40  and  _41
REMARK   20  A    between atoms: _46  and  _48
REMARK   21  A    between atoms: _48  and  _49
REMARK   22  A    between atoms: _48  and  _51
REMARK   23  A    between atoms: _51  and  _52
REMARK   24  A    between atoms: _52  and  _53
REMARK   25  A    between atoms: _53  and  _54
REMARK   26  A    between atoms: _54  and  _55
REMARK   27  A    between atoms: _59  and  _61
REMARK   28  A    between atoms: _61  and  _62
REMARK   29  A    between atoms: _61  and  _64
REMARK   30  A    between atoms: _64  and  _65
REMARK   31  A    between atoms: _65  and  _66
REMARK   32  A    between atoms: _69  and  _71
REMARK   33  A    between atoms: _71  and  _72
REMARK   34  A    between atoms: _71  and  _74
REMARK   35  A    between atoms: _74  and  _75
REMARK   36  A    between atoms: _78  and  _80
REMARK   37  A    between atoms: _80  and  _81
REMARK   38  A    between atoms: _80  and  _83
REMARK   39  A    between atoms: _83  and  _84
REMARK   40  A    between atoms: _86  and  _88
REMARK   41  A    between atoms: _88  and  _89
REMARK   42  A    between atoms: _88  and  _91
REMARK   43  A    between atoms: _91  and  _92
REMARK   44  A    between atoms: _92  and  _93
REMARK   45  A    between atoms: _96  and  _98
REMARK   46  A    between atoms: _98  and  _99
REMARK   47  A    between atoms: _98  and  _101
REMARK   48  A    between atoms: _101  and  _102
REMARK   49  A    between atoms: _102  and  _103
REMARK   50  A    between atoms: _103  and  _104
REMARK   51  A    between atoms: _104  and  _105
REMARK   52  A    between atoms: _109  and  _111
REMARK   53  A    between atoms: _111  and  _112
REMARK   54  A    between atoms: _111  and  _114
REMARK   55  A    between atoms: _114  and  _115
REMARK   56  A    between atoms: _118  and  _120
REMARK   57  A    between atoms: _120  and  _121
REMARK   58  A    between atoms: _120  and  _123
REMARK   59  A    between atoms: _123  and  _124
REMARK   60  A    between atoms: _124  and  _125
REMARK   61  A    between atoms: _130  and  _132
REMARK   62  A    between atoms: _132  and  _133
REMARK   63  A    between atoms: _132  and  _135
REMARK   64  A    between atoms: _135  and  _136
REMARK   65  A    between atoms: _139  and  _141
REMARK   66  A    between atoms: _141  and  _142
REMARK   67  A    between atoms: _141  and  _144
REMARK   68  A    between atoms: _144  and  _145
REMARK   69  A    between atoms: _145  and  _146
REMARK   70  A    between atoms: _149  and  _151
REMARK   71  A    between atoms: _151  and  _152
REMARK   72  A    between atoms: _151  and  _154
REMARK   73  A    between atoms: _154  and  _155
REMARK   74  A    between atoms: _158  and  _160
REMARK   75  A    between atoms: _160  and  _161
REMARK   76  A    between atoms: _160  and  _163
REMARK   77  A    between atoms: _163  and  _164
REMARK   78  A    between atoms: _174  and  _176
REMARK   79  A    between atoms: _176  and  _177
REMARK   80  A    between atoms: _176  and  _179
REMARK   81  A    between atoms: _179  and  _180
REMARK   82  A    between atoms: _185  and  _187
REMARK   83  A    between atoms: _187  and  _188
REMARK   84  A    between atoms: _190  and  _192
REMARK   85  A    between atoms: _192  and  _193
REMARK   86  A    between atoms: _192  and  _195
REMARK   87  A    between atoms: _195  and  _196
REMARK   88  A    between atoms: _198  and  _200
REMARK   89  A    between atoms: _200  and  _201
REMARK   90  A    between atoms: _200  and  _203
REMARK   91  A    between atoms: _203  and  _204
REMARK   92  A    between atoms: _204  and  _205
REMARK   93  A    between atoms: _205  and  _206
REMARK   94  A    between atoms: _215  and  _217
REMARK   95  A    between atoms: _217  and  _218
REMARK   96  A    between atoms: _217  and  _220
REMARK   97  A    between atoms: _220  and  _221
REMARK   98  A    between atoms: _226  and  _228
REMARK   99  A    between atoms: _228  and  _229
REMARK  100  A    between atoms: _228  and  _231
REMARK  101  A    between atoms: _231  and  _232
REMARK  102  A    between atoms: _242  and  _244
REMARK  103  A    between atoms: _244  and  _245
REMARK  104  A    between atoms: _244  and  _247
REMARK  105  A    between atoms: _247  and  _248
REMARK  106  A    between atoms: _251  and  _253
REMARK  107  A    between atoms: _253  and  _254
REMARK  108  A    between atoms: _257  and  _259
REMARK  109  A    between atoms: _259  and  _260
REMARK  110  A    between atoms: _264  and  _265
REMARK  111  A    between atoms: _270  and  _272
REMARK  112  A    between atoms: _272  and  _273
REMARK  113  A    between atoms: _272  and  _275
REMARK  114  A    between atoms: _275  and  _276
REMARK  115  A    between atoms: _279  and  _281
REMARK  116  A    between atoms: _281  and  _282
REMARK  117  A    between atoms: _281  and  _284
REMARK  118  A    between atoms: _284  and  _285
REMARK  119  A    between atoms: _288  and  _290
REMARK  120  A    between atoms: _290  and  _291
REMARK  121  A    between atoms: _293  and  _295
REMARK  122  A    between atoms: _295  and  _296
REMARK  123  A    between atoms: _295  and  _298
REMARK  124  A    between atoms: _298  and  _299
REMARK  125  A    between atoms: _304  and  _305
REMARK  126  A    between atoms: _307  and  _309
REMARK  127  A    between atoms: _309  and  _310
REMARK  128  A    between atoms: _309  and  _312
REMARK  129  A    between atoms: _312  and  _313
REMARK  130  A    between atoms: _313  and  _314
REMARK  131  A    between atoms: _316  and  _318
REMARK  132  A    between atoms: _318  and  _319
REMARK  133  A    between atoms: _318  and  _321
REMARK  134  A    between atoms: _321  and  _322
REMARK  135  A    between atoms: _328  and  _330
REMARK  136  A    between atoms: _330  and  _331
REMARK  137  A    between atoms: _333  and  _335
REMARK  138  A    between atoms: _335  and  _336
REMARK  139  A    between atoms: _335  and  _338
REMARK  140  A    between atoms: _338  and  _339
REMARK  141  A    between atoms: _339  and  _340
REMARK  142  A    between atoms: _340  and  _341
REMARK  143  A    between atoms: _341  and  _342
REMARK  144  A    between atoms: _346  and  _348
REMARK  145  A    between atoms: _348  and  _349
REMARK  146  A    between atoms: _351  and  _353
REMARK  147  A    between atoms: _353  and  _354
REMARK  148  A    between atoms: _353  and  _356
REMARK  149  A    between atoms: _356  and  _357
REMARK  150  A    between atoms: _360  and  _362
REMARK  151  A    between atoms: _362  and  _363
REMARK  152  A    between atoms: _362  and  _365
REMARK  153  A    between atoms: _365  and  _366
REMARK  154  A    between atoms: _371  and  _372
REMARK  155  A    between atoms: _374  and  _376
REMARK  156  A    between atoms: _376  and  _377
REMARK  157  A    between atoms: _376  and  _379
REMARK  158  A    between atoms: _379  and  _380
REMARK  159  A    between atoms: _386  and  _388
REMARK  160  A    between atoms: _388  and  _389
REMARK  161  A    between atoms: _392  and  _394
REMARK  162  A    between atoms: _394  and  _395
REMARK  163  A    between atoms: _394  and  _397
REMARK  164  A    between atoms: _397  and  _398
REMARK  165  A    between atoms: _401  and  _403
REMARK  166  A    between atoms: _403  and  _404
REMARK  167  A    between atoms: _403  and  _406
REMARK  168  A    between atoms: _406  and  _407
REMARK  169  A    between atoms: _407  and  _408
REMARK  170  A    between atoms: _410  and  _412
REMARK  171  A    between atoms: _412  and  _413
REMARK  172  A    between atoms: _412  and  _415
REMARK  173  A    between atoms: _415  and  _416
REMARK  174  A    between atoms: _418  and  _420
REMARK  175  A    between atoms: _420  and  _421
REMARK  176  A    between atoms: _420  and  _423
REMARK  177  A    between atoms: _423  and  _424
REMARK  178  A    between atoms: _426  and  _428
REMARK  179  A    between atoms: _428  and  _429
REMARK  180  A    between atoms: _428  and  _431
REMARK  181  A    between atoms: _431  and  _432
REMARK  182  A    between atoms: _432  and  _433
REMARK  183  A    between atoms: _433  and  _434
REMARK  184  A    between atoms: _434  and  _435
REMARK  185  A    between atoms: _439  and  _441
REMARK  186  A    between atoms: _441  and  _442
REMARK  187  A    between atoms: _441  and  _444
REMARK  188  A    between atoms: _444  and  _445
REMARK  189  A    between atoms: _447  and  _449
REMARK  190  A    between atoms: _449  and  _450
REMARK  191  A    between atoms: _453  and  _455
REMARK  192  A    between atoms: _455  and  _456
REMARK  193  A    between atoms: _455  and  _458
REMARK  194  A    between atoms: _458  and  _459
REMARK  195  A    between atoms: _464  and  _466
REMARK  196  A    between atoms: _466  and  _467
REMARK  197  A    between atoms: _466  and  _469
REMARK  198  A    between atoms: _469  and  _470
REMARK  199  A    between atoms: _475  and  _476
REMARK  200  A    between atoms: _478  and  _480
REMARK  201  A    between atoms: _480  and  _481
REMARK  202  A    between atoms: _480  and  _483
REMARK  203  A    between atoms: _485  and  _487
REMARK  204  A    between atoms: _487  and  _488
REMARK  205  A    between atoms: _487  and  _490
REMARK  206  A    between atoms: _490  and  _491
REMARK  207  A    between atoms: _497  and  _499
REMARK  208  A    between atoms: _499  and  _500
REMARK  209  A    between atoms: _499  and  _502
REMARK  210  A    between atoms: _502  and  _503
REMARK  211  A    between atoms: _506  and  _508
REMARK  212  A    between atoms: _508  and  _509
REMARK  213  A    between atoms: _508  and  _511
REMARK  214  A    between atoms: _511  and  _512
REMARK  215  A    between atoms: _515  and  _517
REMARK  216  A    between atoms: _517  and  _518
REMARK  217  A    between atoms: _520  and  _522
REMARK  218  A    between atoms: _522  and  _523
REMARK  219  A    between atoms: _522  and  _525
REMARK  220  A    between atoms: _525  and  _526
REMARK  221  A    between atoms: _529  and  _531
REMARK  222  A    between atoms: _531  and  _532
REMARK  223  A    between atoms: _531  and  _534
REMARK  224  A    between atoms: _534  and  _535
REMARK  225  A    between atoms: _540  and  _541
REMARK  226  A    between atoms: _543  and  _545
REMARK  227  A    between atoms: _545  and  _546
REMARK  228  A    between atoms: _545  and  _548
REMARK  229  A    between atoms: _548  and  _549
REMARK  230  A    between atoms: _554  and  _556
REMARK  231  A    between atoms: _556  and  _557
REMARK  232  A    between atoms: _556  and  _559
REMARK  233  A    between atoms: _559  and  _560
REMARK  234  A    between atoms: _560  and  _561
REMARK  235  A    between atoms: _564  and  _566
REMARK  236  A    between atoms: _566  and  _567
REMARK  237  A    between atoms: _566  and  _569
REMARK  238  A    between atoms: _569  and  _570
REMARK  239  A    between atoms: _575  and  _576
REMARK  240  A    between atoms: _578  and  _580
REMARK  241  A    between atoms: _580  and  _581
REMARK  242  A    between atoms: _580  and  _583
REMARK  243  A    between atoms: _583  and  _584
REMARK                            x       y       z     vdW  Elec       q    Type
REMARK                         _______ _______ _______ _____ _____    ______ ____
ROOT
ATOM      1  CA  GLU A   3      31.482 -20.448   8.849  0.00  0.00    +0.149 C 
ENDROOT
BRANCH   1   3
ATOM      2  C   ASN A   2      33.706 -21.094   8.716  0.00  0.00    +0.241 C 
ATOM      3  N   GLU A   3      32.684 -20.829   9.513  0.00  0.00    -0.297 N 
ATOM      4  H   GLU A   3      32.753 -20.894  10.549  0.00  0.00    +0.150 HD
ATOM      5  O   ASN A   2      33.569 -21.382   7.490  0.00  0.00    -0.273 OA
BRANCH   2   6
ATOM      6  CA  ASN A   2      35.100 -20.937   9.315  0.00  0.00    +0.158 C 
BRANCH   6   9
ATOM      7  C   TYR A   1      36.004 -22.971   8.361  0.00  0.00    +0.239 C 
ATOM      8  O   TYR A   1      35.076 -23.637   8.809  0.00  0.00    -0.274 OA
ATOM      9  N   ASN A   2      36.094 -21.647   8.533  0.00  0.00    -0.297 N 
ATOM     10  H   ASN A   2      36.883 -21.123   8.103  0.00  0.00    +0.150 HD
BRANCH   7  11
ATOM     11  CA  TYR A   1      37.108 -23.674   7.607  0.00  0.00    +0.149 C 
BRANCH  11  12
ATOM     12  N   TYR A   1      37.030 -25.095   7.992  0.00  0.00    -0.238 NA
ATOM     13  H   TYR A   1      36.088 -25.494   8.181  0.00  0.00    +0.142 HD
ENDBRANCH  11  12
BRANCH  11  14
ATOM     14  CB  TYR A   1      36.900 -23.536   6.106  0.00  0.00    +0.053 C 
BRANCH  14  15
ATOM     15  CG  TYR A   1      37.831 -24.403   5.308  0.00  0.00    -0.020 A 
ATOM     16  CD2 TYR A   1      39.184 -24.080   5.201  0.00  0.00    -0.001 A 
ATOM     17  CE2 TYR A   1      40.058 -24.879   4.468  0.00  0.00    +0.036 A 
ATOM     18  CZ  TYR A   1      39.596 -26.055   3.869  0.00  0.00    +0.134 A 
ATOM     19  CE1 TYR A   1      38.248 -26.431   3.981  0.00  0.00    +0.036 A 
ATOM     20  CD1 TYR A   1      37.376 -25.615   4.705  0.00  0.00    -0.001 A 
BRANCH  18  21
ATOM     21  OH  TYR A   1      40.515 -26.827   3.134  0.00  0.00    -0.506 OA
ATOM     22  HH  TYR A   1      40.217 -26.885   2.192  0.00  0.00    +0.292 HD
ENDBRANCH  18  21
ENDBRANCH  14  15
ENDBRANCH  11  14
ENDBRANCH   7  11
ENDBRANCH   6   9
BRANCH   6  23
ATOM     23  CB  ASN A   2      35.406 -19.421   9.333  0.00  0.00    +0.114 C 
BRANCH  23  24
ATOM     24  CG  ASN A   2      36.731 -19.088  10.020  0.00  0.00    +0.222 C 
ATOM     25  OD1 ASN A   2      37.131 -19.783  10.947  0.00  0.00    -0.275 OA
ATOM     26  ND2 ASN A   2      37.404 -18.015   9.572  0.00  0.00    -0.329 N 
ATOM     27 HD21 ASN A   2      38.305 -17.744  10.015  0.00  0.00    +0.145 HD
ATOM     28 HD22 ASN A   2      37.024 -17.456   8.782  0.00  0.00    +0.145 HD
ENDBRANCH  23  24
ENDBRANCH   6  23
ENDBRANCH   2   6
ENDBRANCH   1   3
BRANCH   1  29
ATOM     29  C   GLU A   3      30.806 -19.444   9.756  0.00  0.00    +0.241 C 
ATOM     30  O   GLU A   3      31.112 -19.412  10.943  0.00  0.00    -0.273 OA
ATOM     31  N   TYR A   4      29.983 -18.562   9.187  0.00  0.00    -0.297 N 
ATOM     32  H   TYR A   4      29.721 -18.651   8.184  0.00  0.00    +0.150 HD
BRANCH  31  33
ATOM     33  CA  TYR A   4      29.455 -17.464  10.005  0.00  0.00    +0.153 C 
BRANCH  33  34
ATOM     34  C   TYR A   4      27.960 -17.530   9.953  0.00  0.00    +0.241 C 
ATOM     35  N   ILE A   5      27.296 -17.193  11.047  0.00  0.00    -0.298 N 
ATOM     36  H   ILE A   5      27.802 -16.868  11.895  0.00  0.00    +0.150 HD
ATOM     37  O   TYR A   4      27.400 -17.804   8.916  0.00  0.00    -0.273 OA
BRANCH  35  38
ATOM     38  CA  ILE A   5      25.874 -17.285  11.039  0.00  0.00    +0.137 C 
BRANCH  38  39
ATOM     39  CB  ILE A   5      25.431 -18.553  11.811  0.00  0.00    +0.026 C 
ATOM     40  CG2 ILE A   5      23.957 -18.819  11.533  0.00  0.00    +0.002 C 
BRANCH  39  41
ATOM     41  CG1 ILE A   5      26.212 -19.795  11.312  0.00  0.00    +0.002 C 
ATOM     42  CD1 ILE A   5      27.521 -20.151  12.025  0.00  0.00    +0.000 C 
ENDBRANCH  39  41
ENDBRANCH  38  39
BRANCH  38  43
ATOM     43  C   ILE A   5      25.247 -16.023  11.619  0.00  0.00    +0.227 C 
ATOM     44  O   ILE A   5      25.659 -15.588  12.703  0.00  0.00    -0.286 OA
ENDBRANCH  38  43
ENDBRANCH  35  38
ENDBRANCH  33  34
BRANCH  33  45
ATOM     45  CB  TYR A   4      29.933 -16.067   9.481  0.00  0.00    +0.055 C 
BRANCH  45  46
ATOM     46  CG  TYR A   4      31.461 -15.879   9.404  0.00  0.00    -0.020 A 
ATOM     47  CD2 TYR A   4      32.152 -15.124  10.355  0.00  0.00    -0.001 A 
ATOM     48  CE2 TYR A   4      33.537 -14.924  10.262  0.00  0.00    +0.036 A 
ATOM     49  CZ  TYR A   4      34.208 -15.509   9.222  0.00  0.00    +0.134 A 
ATOM     50  CE1 TYR A   4      33.551 -16.261   8.286  0.00  0.00    +0.036 A 
ATOM     51  CD1 TYR A   4      32.187 -16.441   8.389  0.00  0.00    -0.001 A 
BRANCH  49  52
ATOM     52  OH  TYR A   4      35.546 -15.374   9.081  0.00  0.00    -0.506 OA
ATOM     53  HH  TYR A   4      35.843 -15.866   8.275  0.00  0.00    +0.292 HD
ENDBRANCH  49  52
ENDBRANCH  45  46
ENDBRANCH  33  45
ENDBRANCH  31  33
ENDBRANCH   1  29
BRANCH   1  54
ATOM     54  CB  GLU A   3      30.598 -21.653   8.498  0.00  0.00    +0.041 C 
BRANCH  54  55
ATOM     55  CG  GLU A   3      30.097 -22.485   9.668  0.00  0.00    +0.116 C 
BRANCH  55  56
ATOM     56  CD  GLU A   3      29.683 -23.867   9.179  0.00  0.00    +0.365 C 
ATOM     57  OE2 GLU A   3      28.572 -24.281   9.503  0.00  0.00    -0.246 OA
ATOM     58  OE1 GLU A   3      30.468 -24.542   8.437  0.00  0.00    -0.246 OA
ENDBRANCH  55  56
ENDBRANCH  54  55
ENDBRANCH   1  54
TORSDOF 23
REMARK  Name = ../refined-set-2016/4zzy/4zzy_pocket.pdb
REMARK  243 active torsions:
REMARK  status: ('A' for Active; 'I' for Inactive)
REMARK    1  A    between atoms: _1  and  _3
REMARK    2  A    between atoms: _3  and  _4
REMARK    3  A    between atoms: _3  and  _6
REMARK    4  A    between atoms: _6  and  _7
REMARK    5  A    between atoms: _12  and  _13
REMARK    6  A    between atoms: _15  and  _17
REMARK    7  A    between atoms: _17  and  _18
REMARK    8  A    between atoms: _17  and  _20
REMARK    9  A    between atoms: _20  and  _21
REMARK   10  A    between atoms: _24  and  _26
REMARK   11  A    between atoms: _26  and  _27
REMARK   12  A    between atoms: _26  and  _29
REMARK   13  A    between atoms: _29  and  _30
REMARK   14  A    between atoms: _30  and  _31
REMARK   15  A    between atoms: _34  and  _36
REMARK   16  A    between atoms: _36  and  _37
REMARK   17  A    between atoms: _36  and  _39
REMARK   18  A    between atoms: _39  and  _40
REMARK   19  A    between atoms: _40  and  _41
REMARK   20  A    between atoms: _46  and  _48
REMARK   21  A    between atoms: _48  and  _49
REMARK   22  A    between atoms: _48  and  _51
REMARK   23  A    between atoms: _51  and  _52
REMARK   24  A    between atoms: _52  and  _53
REMARK   25  A    between atoms: _53  and  _54
REMARK   26  A    between atoms: _54  and  _55
REMARK   27  A    between atoms: _59  and  _61
REMARK   28  A    between atoms: _61  and  _62
REMARK   29  A    between atoms: _61  and  _64
REMARK   30  A    between atoms: _64  and  _65
REMARK   31  A    between atoms: _65  and  _66
REMARK   32  A    between atoms: _69  and  _71
REMARK   33  A    between atoms: _71  and  _72
REMARK   34  A    between atoms: _71  and  _74
REMARK   35  A    between atoms: _74  and  _75
REMARK   36  A    between atoms: _78  and  _80
REMARK   37  A    between atoms: _80  and  _81
REMARK   38  A    between atoms: _80  and  _83
REMARK   39  A    between atoms: _83  and  _84
REMARK   40  A    between atoms: _86  and  _88
REMARK   41  A    between atoms: _88  and  _89
REMARK   42  A    between atoms: _88  and  _91
REMARK   43  A    between atoms: _91  and  _92
REMARK   44  A    between atoms: _92  and  _93
REMARK   45  A    between atoms: _96  and  _98
REMARK   46  A    between atoms: _98  and  _99
REMARK   47  A    between atoms: _98  and  _101
REMARK   48  A    between atoms: _101  and  _102
REMARK   49  A    between atoms: _102  and  _103
REMARK   50  A    between atoms: _103  and  _104
REMARK   51  A    between atoms: _104  and  _105
REMARK   52  A    between atoms: _109  and  _111
REMARK   53  A    between atoms: _111  and  _112
REMARK   54  A    between atoms: _111  and  _114
REMARK   55  A    between atoms: _114  and  _115
REMARK   56  A    between atoms: _118  and  _120
REMARK   57  A    between atoms: _120  and  _121
REMARK   58  A    between atoms: _120  and  _123
REMARK   59  A    between atoms: _123  and  _124
REMARK   60  A    between atoms: _124  and  _125
REMARK   61  A    between atoms: _130  and  _132
REMARK   62  A    between atoms: _132  and  _133
REMARK   63  A    between atoms: _132  and  _135
REMARK   64  A    between atoms: _135  and  _136
REMARK   65  A    between atoms: _139  and  _141
REMARK   66  A    between atoms: _141  and  _142
REMARK   67  A    between atoms: _141  and  _144
REMARK   68  A    between atoms: _144  and  _145
REMARK   69  A    between atoms: _145  and  _146
REMARK   70  A    between atoms: _149  and  _151
REMARK   71  A    between atoms: _151  and  _152
REMARK   72  A    between atoms: _151  and  _154
REMARK   73  A    between atoms: _154  and  _155
REMARK   74  A    between atoms: _158  and  _160
REMARK   75  A    between atoms: _160  and  _161
REMARK   76  A    between atoms: _160  and  _163
REMARK   77  A    between atoms: _163  and  _164
REMARK   78  A    between atoms: _174  and  _176
REMARK   79  A    between atoms: _176  and  _177
REMARK   80  A    between atoms: _176  and  _179
REMARK   81  A    between atoms: _179  and  _180
REMARK   82  A    between atoms: _185  and  _187
REMARK   83  A    between atoms: _187  and  _188
REMARK   84  A    between atoms: _190  and  _192
REMARK   85  A    between atoms: _192  and  _193
REMARK   86  A    between atoms: _192  and  _195
REMARK   87  A    between atoms: _195  and  _196
REMARK   88  A    between atoms: _198  and  _200
REMARK   89  A    between atoms: _200  and  _201
REMARK   90  A    between atoms: _200  and  _203
REMARK   91  A    between atoms: _203  and  _204
REMARK   92  A    between atoms: _204  and  _205
REMARK   93  A    between atoms: _205  and  _206
REMARK   94  A    between atoms: _215  and  _217
REMARK   95  A    between atoms: _217  and  _218
REMARK   96  A    between atoms: _217  and  _220
REMARK   97  A    between atoms: _220  and  _221
REMARK   98  A    between atoms: _226  and  _228
REMARK   99  A    between atoms: _228  and  _229
REMARK  100  A    between atoms: _228  and  _231
REMARK  101  A    between atoms: _231  and  _232
REMARK  102  A    between atoms: _242  and  _244
REMARK  103  A    between atoms: _244  and  _245
REMARK  104  A    between atoms: _244  and  _247
REMARK  105  A    between atoms: _247  and  _248
REMARK  106  A    between atoms: _251  and  _253
REMARK  107  A    between atoms: _253  and  _254
REMARK  108  A    between atoms: _257  and  _259
REMARK  109  A    between atoms: _259  and  _260
REMARK  110  A    between atoms: _264  and  _265
REMARK  111  A    between atoms: _270  and  _272
REMARK  112  A    between atoms: _272  and  _273
REMARK  113  A    between atoms: _272  and  _275
REMARK  114  A    between atoms: _275  and  _276
REMARK  115  A    between atoms: _279  and  _281
REMARK  116  A    between atoms: _281  and  _282
REMARK  117  A    between atoms: _281  and  _284
REMARK  118  A    between atoms: _284  and  _285
REMARK  119  A    between atoms: _288  and  _290
REMARK  120  A    between atoms: _290  and  _291
REMARK  121  A    between atoms: _293  and  _295
REMARK  122  A    between atoms: _295  and  _296
REMARK  123  A    between atoms: _295  and  _298
REMARK  124  A    between atoms: _298  and  _299
REMARK  125  A    between atoms: _304  and  _305
REMARK  126  A    between atoms: _307  and  _309
REMARK  127  A    between atoms: _309  and  _310
REMARK  128  A    between atoms: _309  and  _312
REMARK  129  A    between atoms: _312  and  _313
REMARK  130  A    between atoms: _313  and  _314
REMARK  131  A    between atoms: _316  and  _318
REMARK  132  A    between atoms: _318  and  _319
REMARK  133  A    between atoms: _318  and  _321
REMARK  134  A    between atoms: _321  and  _322
REMARK  135  A    between atoms: _328  and  _330
REMARK  136  A    between atoms: _330  and  _331
REMARK  137  A    between atoms: _333  and  _335
REMARK  138  A    between atoms: _335  and  _336
REMARK  139  A    between atoms: _335  and  _338
REMARK  140  A    between atoms: _338  and  _339
REMARK  141  A    between atoms: _339  and  _340
REMARK  142  A    between atoms: _340  and  _341
REMARK  143  A    between atoms: _341  and  _342
REMARK  144  A    between atoms: _346  and  _348
REMARK  145  A    between atoms: _348  and  _349
REMARK  146  A    between atoms: _351  and  _353
REMARK  147  A    between atoms: _353  and  _354
REMARK  148  A    between atoms: _353  and  _356
REMARK  149  A    between atoms: _356  and  _357
REMARK  150  A    between atoms: _360  and  _362
REMARK  151  A    between atoms: _362  and  _363
REMARK  152  A    between atoms: _362  and  _365
REMARK  153  A    between atoms: _365  and  _366
REMARK  154  A    between atoms: _371  and  _372
REMARK  155  A    between atoms: _374  and  _376
REMARK  156  A    between atoms: _376  and  _377
REMARK  157  A    between atoms: _376  and  _379
REMARK  158  A    between atoms: _379  and  _380
REMARK  159  A    between atoms: _386  and  _388
REMARK  160  A    between atoms: _388  and  _389
REMARK  161  A    between atoms: _392  and  _394
REMARK  162  A    between atoms: _394  and  _395
REMARK  163  A    between atoms: _394  and  _397
REMARK  164  A    between atoms: _397  and  _398
REMARK  165  A    between atoms: _401  and  _403
REMARK  166  A    between atoms: _403  and  _404
REMARK  167  A    between atoms: _403  and  _406
REMARK  168  A    between atoms: _406  and  _407
REMARK  169  A    between atoms: _407  and  _408
REMARK  170  A    between atoms: _410  and  _412
REMARK  171  A    between atoms: _412  and  _413
REMARK  172  A    between atoms: _412  and  _415
REMARK  173  A    between atoms: _415  and  _416
REMARK  174  A    between atoms: _418  and  _420
REMARK  175  A    between atoms: _420  and  _421
REMARK  176  A    between atoms: _420  and  _423
REMARK  177  A    between atoms: _423  and  _424
REMARK  178  A    between atoms: _426  and  _428
REMARK  179  A    between atoms: _428  and  _429
REMARK  180  A    between atoms: _428  and  _431
REMARK  181  A    between atoms: _431  and  _432
REMARK  182  A    between atoms: _432  and  _433
REMARK  183  A    between atoms: _433  and  _434
REMARK  184  A    between atoms: _434  and  _435
REMARK  185  A    between atoms: _439  and  _441
REMARK  186  A    between atoms: _441  and  _442
REMARK  187  A    between atoms: _441  and  _444
REMARK  188  A    between atoms: _444  and  _445
REMARK  189  A    between atoms: _447  and  _449
REMARK  190  A    between atoms: _449  and  _450
REMARK  191  A    between atoms: _453  and  _455
REMARK  192  A    between atoms: _455  and  _456
REMARK  193  A    between atoms: _455  and  _458
REMARK  194  A    between atoms: _458  and  _459
REMARK  195  A    between atoms: _464  and  _466
REMARK  196  A    between atoms: _466  and  _467
REMARK  197  A    between atoms: _466  and  _469
REMARK  198  A    between atoms: _469  and  _470
REMARK  199  A    between atoms: _475  and  _476
REMARK  200  A    between atoms: _478  and  _480
REMARK  201  A    between atoms: _480  and  _481
REMARK  202  A    between atoms: _480  and  _483
REMARK  203  A    between atoms: _485  and  _487
REMARK  204  A    between atoms: _487  and  _488
REMARK  205  A    between atoms: _487  and  _490
REMARK  206  A    between atoms: _490  and  _491
REMARK  207  A    between atoms: _497  and  _499
REMARK  208  A    between atoms: _499  and  _500
REMARK  209  A    between atoms: _499  and  _502
REMARK  210  A    between atoms: _502  and  _503
REMARK  211  A    between atoms: _506  and  _508
REMARK  212  A    between atoms: _508  and  _509
REMARK  213  A    between atoms: _508  and  _511
REMARK  214  A    between atoms: _511  and  _512
REMARK  215  A    between atoms: _515  and  _517
REMARK  216  A    between atoms: _517  and  _518
REMARK  217  A    between atoms: _520  and  _522
REMARK  218  A    between atoms: _522  and  _523
REMARK  219  A    between atoms: _522  and  _525
REMARK  220  A    between atoms: _525  and  _526
REMARK  221  A    between atoms: _529  and  _531
REMARK  222  A    between atoms: _531  and  _532
REMARK  223  A    between atoms: _531  and  _534
REMARK  224  A    between atoms: _534  and  _535
REMARK  225  A    between atoms: _540  and  _541
REMARK  226  A    between atoms: _543  and  _545
REMARK  227  A    between atoms: _545  and  _546
REMARK  228  A    between atoms: _545  and  _548
REMARK  229  A    between atoms: _548  and  _549
REMARK  230  A    between atoms: _554  and  _556
REMARK  231  A    between atoms: _556  and  _557
REMARK  232  A    between atoms: _556  and  _559
REMARK  233  A    between atoms: _559  and  _560
REMARK  234  A    between atoms: _560  and  _561
REMARK  235  A    between atoms: _564  and  _566
REMARK  236  A    between atoms: _566  and  _567
REMARK  237  A    between atoms: _566  and  _569
REMARK  238  A    between atoms: _569  and  _570
REMARK  239  A    between atoms: _575  and  _576
REMARK  240  A    between atoms: _578  and  _580
REMARK  241  A    between atoms: _580  and  _581
REMARK  242  A    between atoms: _580  and  _583
REMARK  243  A    between atoms: _583  and  _584
REMARK                            x       y       z     vdW  Elec       q    Type
REMARK                         _______ _______ _______ _____ _____    ______ ____
ROOT
ATOM      1  O   HOH     1      12.479 -27.301   6.141  0.00  0.00    +0.000 OA
ENDROOT
TORSDOF 0
REMARK  Name = ../refined-set-2016/4zzy/4zzy_pocket.pdb
REMARK  243 active torsions:
REMARK  status: ('A' for Active; 'I' for Inactive)
REMARK    1  A    between atoms: _1  and  _3
REMARK    2  A    between atoms: _3  and  _4
REMARK    3  A    between atoms: _3  and  _6
REMARK    4  A    between atoms: _6  and  _7
REMARK    5  A    between atoms: _12  and  _13
REMARK    6  A    between atoms: _15  and  _17
REMARK    7  A    between atoms: _17  and  _18
REMARK    8  A    between atoms: _17  and  _20
REMARK    9  A    between atoms: _20  and  _21
REMARK   10  A    between atoms: _24  and  _26
REMARK   11  A    between atoms: _26  and  _27
REMARK   12  A    between atoms: _26  and  _29
REMARK   13  A    between atoms: _29  and  _30
REMARK   14  A    between atoms: _30  and  _31
REMARK   15  A    between atoms: _34  and  _36
REMARK   16  A    between atoms: _36  and  _37
REMARK   17  A    between atoms: _36  and  _39
REMARK   18  A    between atoms: _39  and  _40
REMARK   19  A    between atoms: _40  and  _41
REMARK   20  A    between atoms: _46  and  _48
REMARK   21  A    between atoms: _48  and  _49
REMARK   22  A    between atoms: _48  and  _51
REMARK   23  A    between atoms: _51  and  _52
REMARK   24  A    between atoms: _52  and  _53
REMARK   25  A    between atoms: _53  and  _54
REMARK   26  A    between atoms: _54  and  _55
REMARK   27  A    between atoms: _59  and  _61
REMARK   28  A    between atoms: _61  and  _62
REMARK   29  A    between atoms: _61  and  _64
REMARK   30  A    between atoms: _64  and  _65
REMARK   31  A    between atoms: _65  and  _66
REMARK   32  A    between atoms: _69  and  _71
REMARK   33  A    between atoms: _71  and  _72
REMARK   34  A    between atoms: _71  and  _74
REMARK   35  A    between atoms: _74  and  _75
REMARK   36  A    between atoms: _78  and  _80
REMARK   37  A    between atoms: _80  and  _81
REMARK   38  A    between atoms: _80  and  _83
REMARK   39  A    between atoms: _83  and  _84
REMARK   40  A    between atoms: _86  and  _88
REMARK   41  A    between atoms: _88  and  _89
REMARK   42  A    between atoms: _88  and  _91
REMARK   43  A    between atoms: _91  and  _92
REMARK   44  A    between atoms: _92  and  _93
REMARK   45  A    between atoms: _96  and  _98
REMARK   46  A    between atoms: _98  and  _99
REMARK   47  A    between atoms: _98  and  _101
REMARK   48  A    between atoms: _101  and  _102
REMARK   49  A    between atoms: _102  and  _103
REMARK   50  A    between atoms: _103  and  _104
REMARK   51  A    between atoms: _104  and  _105
REMARK   52  A    between atoms: _109  and  _111
REMARK   53  A    between atoms: _111  and  _112
REMARK   54  A    between atoms: _111  and  _114
REMARK   55  A    between atoms: _114  and  _115
REMARK   56  A    between atoms: _118  and  _120
REMARK   57  A    between atoms: _120  and  _121
REMARK   58  A    between atoms: _120  and  _123
REMARK   59  A    between atoms: _123  and  _124
REMARK   60  A    between atoms: _124  and  _125
REMARK   61  A    between atoms: _130  and  _132
REMARK   62  A    between atoms: _132  and  _133
REMARK   63  A    between atoms: _132  and  _135
REMARK   64  A    between atoms: _135  and  _136
REMARK   65  A    between atoms: _139  and  _141
REMARK   66  A    between atoms: _141  and  _142
REMARK   67  A    between atoms: _141  and  _144
REMARK   68  A    between atoms: _144  and  _145
REMARK   69  A    between atoms: _145  and  _146
REMARK   70  A    between atoms: _149  and  _151
REMARK   71  A    between atoms: _151  and  _152
REMARK   72  A    between atoms: _151  and  _154
REMARK   73  A    between atoms: _154  and  _155
REMARK   74  A    between atoms: _158  and  _160
REMARK   75  A    between atoms: _160  and  _161
REMARK   76  A    between atoms: _160  and  _163
REMARK   77  A    between atoms: _163  and  _164
REMARK   78  A    between atoms: _174  and  _176
REMARK   79  A    between atoms: _176  and  _177
REMARK   80  A    between atoms: _176  and  _179
REMARK   81  A    between atoms: _179  and  _180
REMARK   82  A    between atoms: _185  and  _187
REMARK   83  A    between atoms: _187  and  _188
REMARK   84  A    between atoms: _190  and  _192
REMARK   85  A    between atoms: _192  and  _193
REMARK   86  A    between atoms: _192  and  _195
REMARK   87  A    between atoms: _195  and  _196
REMARK   88  A    between atoms: _198  and  _200
REMARK   89  A    between atoms: _200  and  _201
REMARK   90  A    between atoms: _200  and  _203
REMARK   91  A    between atoms: _203  and  _204
REMARK   92  A    between atoms: _204  and  _205
REMARK   93  A    between atoms: _205  and  _206
REMARK   94  A    between atoms: _215  and  _217
REMARK   95  A    between atoms: _217  and  _218
REMARK   96  A    between atoms: _217  and  _220
REMARK   97  A    between atoms: _220  and  _221
REMARK   98  A    between atoms: _226  and  _228
REMARK   99  A    between atoms: _228  and  _229
REMARK  100  A    between atoms: _228  and  _231
REMARK  101  A    between atoms: _231  and  _232
REMARK  102  A    between atoms: _242  and  _244
REMARK  103  A    between atoms: _244  and  _245
REMARK  104  A    between atoms: _244  and  _247
REMARK  105  A    between atoms: _247  and  _248
REMARK  106  A    between atoms: _251  and  _253
REMARK  107  A    between atoms: _253  and  _254
REMARK  108  A    between atoms: _257  and  _259
REMARK  109  A    between atoms: _259  and  _260
REMARK  110  A    between atoms: _264  and  _265
REMARK  111  A    between atoms: _270  and  _272
REMARK  112  A    between atoms: _272  and  _273
REMARK  113  A    between atoms: _272  and  _275
REMARK  114  A    between atoms: _275  and  _276
REMARK  115  A    between atoms: _279  and  _281
REMARK  116  A    between atoms: _281  and  _282
REMARK  117  A    between atoms: _281  and  _284
REMARK  118  A    between atoms: _284  and  _285
REMARK  119  A    between atoms: _288  and  _290
REMARK  120  A    between atoms: _290  and  _291
REMARK  121  A    between atoms: _293  and  _295
REMARK  122  A    between atoms: _295  and  _296
REMARK  123  A    between atoms: _295  and  _298
REMARK  124  A    between atoms: _298  and  _299
REMARK  125  A    between atoms: _304  and  _305
REMARK  126  A    between atoms: _307  and  _309
REMARK  127  A    between atoms: _309  and  _310
REMARK  128  A    between atoms: _309  and  _312
REMARK  129  A    between atoms: _312  and  _313
REMARK  130  A    between atoms: _313  and  _314
REMARK  131  A    between atoms: _316  and  _318
REMARK  132  A    between atoms: _318  and  _319
REMARK  133  A    between atoms: _318  and  _321
REMARK  134  A    between atoms: _321  and  _322
REMARK  135  A    between atoms: _328  and  _330
REMARK  136  A    between atoms: _330  and  _331
REMARK  137  A    between atoms: _333  and  _335
REMARK  138  A    between atoms: _335  and  _336
REMARK  139  A    between atoms: _335  and  _338
REMARK  140  A    between atoms: _338  and  _339
REMARK  141  A    between atoms: _339  and  _340
REMARK  142  A    between atoms: _340  and  _341
REMARK  143  A    between atoms: _341  and  _342
REMARK  144  A    between atoms: _346  and  _348
REMARK  145  A    between atoms: _348  and  _349
REMARK  146  A    between atoms: _351  and  _353
REMARK  147  A    between atoms: _353  and  _354
REMARK  148  A    between atoms: _353  and  _356
REMARK  149  A    between atoms: _356  and  _357
REMARK  150  A    between atoms: _360  and  _362
REMARK  151  A    between atoms: _362  and  _363
REMARK  152  A    between atoms: _362  and  _365
REMARK  153  A    between atoms: _365  and  _366
REMARK  154  A    between atoms: _371  and  _372
REMARK  155  A    between atoms: _374  and  _376
REMARK  156  A    between atoms: _376  and  _377
REMARK  157  A    between atoms: _376  and  _379
REMARK  158  A    between atoms: _379  and  _380
REMARK  159  A    between atoms: _386  and  _388
REMARK  160  A    between atoms: _388  and  _389
REMARK  161  A    between atoms: _392  and  _394
REMARK  162  A    between atoms: _394  and  _395
REMARK  163  A    between atoms: _394  and  _397
REMARK  164  A    between atoms: _397  and  _398
REMARK  165  A    between atoms: _401  and  _403
REMARK  166  A    between atoms: _403  and  _404
REMARK  167  A    between atoms: _403  and  _406
REMARK  168  A    between atoms: _406  and  _407
REMARK  169  A    between atoms: _407  and  _408
REMARK  170  A    between atoms: _410  and  _412
REMARK  171  A    between atoms: _412  and  _413
REMARK  172  A    between atoms: _412  and  _415
REMARK  173  A    between atoms: _415  and  _416
REMARK  174  A    between atoms: _418  and  _420
REMARK  175  A    between atoms: _420  and  _421
REMARK  176  A    between atoms: _420  and  _423
REMARK  177  A    between atoms: _423  and  _424
REMARK  178  A    between atoms: _426  and  _428
REMARK  179  A    between atoms: _428  and  _429
REMARK  180  A    between atoms: _428  and  _431
REMARK  181  A    between atoms: _431  and  _432
REMARK  182  A    between atoms: _432  and  _433
REMARK  183  A    between atoms: _433  and  _434
REMARK  184  A    between atoms: _434  and  _435
REMARK  185  A    between atoms: _439  and  _441
REMARK  186  A    between atoms: _441  and  _442
REMARK  187  A    between atoms: _441  and  _444
REMARK  188  A    between atoms: _444  and  _445
REMARK  189  A    between atoms: _447  and  _449
REMARK  190  A    between atoms: _449  and  _450
REMARK  191  A    between atoms: _453  and  _455
REMARK  192  A    between atoms: _455  and  _456
REMARK  193  A    between atoms: _455  and  _458
REMARK  194  A    between atoms: _458  and  _459
REMARK  195  A    between atoms: _464  and  _466
REMARK  196  A    between atoms: _466  and  _467
REMARK  197  A    between atoms: _466  and  _469
REMARK  198  A    between atoms: _469  and  _470
REMARK  199  A    between atoms: _475  and  _476
REMARK  200  A    between atoms: _478  and  _480
REMARK  201  A    between atoms: _480  and  _481
REMARK  202  A    between atoms: _480  and  _483
REMARK  203  A    between atoms: _485  and  _487
REMARK  204  A    between atoms: _487  and  _488
REMARK  205  A    between atoms: _487  and  _490
REMARK  206  A    between atoms: _490  and  _491
REMARK  207  A    between atoms: _497  and  _499
REMARK  208  A    between atoms: _499  and  _500
REMARK  209  A    between atoms: _499  and  _502
REMARK  210  A    between atoms: _502  and  _503
REMARK  211  A    between atoms: _506  and  _508
REMARK  212  A    between atoms: _508  and  _509
REMARK  213  A    between atoms: _508  and  _511
REMARK  214  A    between atoms: _511  and  _512
REMARK  215  A    between atoms: _515  and  _517
REMARK  216  A    between atoms: _517  and  _518
REMARK  217  A    between atoms: _520  and  _522
REMARK  218  A    between atoms: _522  and  _523
REMARK  219  A    between atoms: _522  and  _525
REMARK  220  A    between atoms: _525  and  _526
REMARK  221  A    between atoms: _529  and  _531
REMARK  222  A    between atoms: _531  and  _532
REMARK  223  A    between atoms: _531  and  _534
REMARK  224  A    between atoms: _534  and  _535
REMARK  225  A    between atoms: _540  and  _541
REMARK  226  A    between atoms: _543  and  _545
REMARK  227  A    between atoms: _545  and  _546
REMARK  228  A    between atoms: _545  and  _548
REMARK  229  A    between atoms: _548  and  _549
REMARK  230  A    between atoms: _554  and  _556
REMARK  231  A    between atoms: _556  and  _557
REMARK  232  A    between atoms: _556  and  _559
REMARK  233  A    between atoms: _559  and  _560
REMARK  234  A    between atoms: _560  and  _561
REMARK  235  A    between atoms: _564  and  _566
REMARK  236  A    between atoms: _566  and  _567
REMARK  237  A    between atoms: _566  and  _569
REMARK  238  A    between atoms: _569  and  _570
REMARK  239  A    between atoms: _575  and  _576
REMARK  240  A    between atoms: _578  and  _580
REMARK  241  A    between atoms: _580  and  _581
REMARK  242  A    between atoms: _580  and  _583
REMARK  243  A    between atoms: _583  and  _584
REMARK                            x       y       z     vdW  Elec       q    Type
REMARK                         _______ _______ _______ _____ _____    ______ ____
ROOT
ATOM      1  O   HOH     1      15.179 -26.041   0.381  0.00  0.00    +0.000 OA
ENDROOT
TORSDOF 0
REMARK  Name = ../refined-set-2016/4zzy/4zzy_pocket.pdb
REMARK  243 active torsions:
REMARK  status: ('A' for Active; 'I' for Inactive)
REMARK    1  A    between atoms: _1  and  _3
REMARK    2  A    between atoms: _3  and  _4
REMARK    3  A    between atoms: _3  and  _6
REMARK    4  A    between atoms: _6  and  _7
REMARK    5  A    between atoms: _12  and  _13
REMARK    6  A    between atoms: _15  and  _17
REMARK    7  A    between atoms: _17  and  _18
REMARK    8  A    between atoms: _17  and  _20
REMARK    9  A    between atoms: _20  and  _21
REMARK   10  A    between atoms: _24  and  _26
REMARK   11  A    between atoms: _26  and  _27
REMARK   12  A    between atoms: _26  and  _29
REMARK   13  A    between atoms: _29  and  _30
REMARK   14  A    between atoms: _30  and  _31
REMARK   15  A    between atoms: _34  and  _36
REMARK   16  A    between atoms: _36  and  _37
REMARK   17  A    between atoms: _36  and  _39
REMARK   18  A    between atoms: _39  and  _40
REMARK   19  A    between atoms: _40  and  _41
REMARK   20  A    between atoms: _46  and  _48
REMARK   21  A    between atoms: _48  and  _49
REMARK   22  A    between atoms: _48  and  _51
REMARK   23  A    between atoms: _51  and  _52
REMARK   24  A    between atoms: _52  and  _53
REMARK   25  A    between atoms: _53  and  _54
REMARK   26  A    between atoms: _54  and  _55
REMARK   27  A    between atoms: _59  and  _61
REMARK   28  A    between atoms: _61  and  _62
REMARK   29  A    between atoms: _61  and  _64
REMARK   30  A    between atoms: _64  and  _65
REMARK   31  A    between atoms: _65  and  _66
REMARK   32  A    between atoms: _69  and  _71
REMARK   33  A    between atoms: _71  and  _72
REMARK   34  A    between atoms: _71  and  _74
REMARK   35  A    between atoms: _74  and  _75
REMARK   36  A    between atoms: _78  and  _80
REMARK   37  A    between atoms: _80  and  _81
REMARK   38  A    between atoms: _80  and  _83
REMARK   39  A    between atoms: _83  and  _84
REMARK   40  A    between atoms: _86  and  _88
REMARK   41  A    between atoms: _88  and  _89
REMARK   42  A    between atoms: _88  and  _91
REMARK   43  A    between atoms: _91  and  _92
REMARK   44  A    between atoms: _92  and  _93
REMARK   45  A    between atoms: _96  and  _98
REMARK   46  A    between atoms: _98  and  _99
REMARK   47  A    between atoms: _98  and  _101
REMARK   48  A    between atoms: _101  and  _102
REMARK   49  A    between atoms: _102  and  _103
REMARK   50  A    between atoms: _103  and  _104
REMARK   51  A    between atoms: _104  and  _105
REMARK   52  A    between atoms: _109  and  _111
REMARK   53  A    between atoms: _111  and  _112
REMARK   54  A    between atoms: _111  and  _114
REMARK   55  A    between atoms: _114  and  _115
REMARK   56  A    between atoms: _118  and  _120
REMARK   57  A    between atoms: _120  and  _121
REMARK   58  A    between atoms: _120  and  _123
REMARK   59  A    between atoms: _123  and  _124
REMARK   60  A    between atoms: _124  and  _125
REMARK   61  A    between atoms: _130  and  _132
REMARK   62  A    between atoms: _132  and  _133
REMARK   63  A    between atoms: _132  and  _135
REMARK   64  A    between atoms: _135  and  _136
REMARK   65  A    between atoms: _139  and  _141
REMARK   66  A    between atoms: _141  and  _142
REMARK   67  A    between atoms: _141  and  _144
REMARK   68  A    between atoms: _144  and  _145
REMARK   69  A    between atoms: _145  and  _146
REMARK   70  A    between atoms: _149  and  _151
REMARK   71  A    between atoms: _151  and  _152
REMARK   72  A    between atoms: _151  and  _154
REMARK   73  A    between atoms: _154  and  _155
REMARK   74  A    between atoms: _158  and  _160
REMARK   75  A    between atoms: _160  and  _161
REMARK   76  A    between atoms: _160  and  _163
REMARK   77  A    between atoms: _163  and  _164
REMARK   78  A    between atoms: _174  and  _176
REMARK   79  A    between atoms: _176  and  _177
REMARK   80  A    between atoms: _176  and  _179
REMARK   81  A    between atoms: _179  and  _180
REMARK   82  A    between atoms: _185  and  _187
REMARK   83  A    between atoms: _187  and  _188
REMARK   84  A    between atoms: _190  and  _192
REMARK   85  A    between atoms: _192  and  _193
REMARK   86  A    between atoms: _192  and  _195
REMARK   87  A    between atoms: _195  and  _196
REMARK   88  A    between atoms: _198  and  _200
REMARK   89  A    between atoms: _200  and  _201
REMARK   90  A    between atoms: _200  and  _203
REMARK   91  A    between atoms: _203  and  _204
REMARK   92  A    between atoms: _204  and  _205
REMARK   93  A    between atoms: _205  and  _206
REMARK   94  A    between atoms: _215  and  _217
REMARK   95  A    between atoms: _217  and  _218
REMARK   96  A    between atoms: _217  and  _220
REMARK   97  A    between atoms: _220  and  _221
REMARK   98  A    between atoms: _226  and  _228
REMARK   99  A    between atoms: _228  and  _229
REMARK  100  A    between atoms: _228  and  _231
REMARK  101  A    between atoms: _231  and  _232
REMARK  102  A    between atoms: _242  and  _244
REMARK  103  A    between atoms: _244  and  _245
REMARK  104  A    between atoms: _244  and  _247
REMARK  105  A    between atoms: _247  and  _248
REMARK  106  A    between atoms: _251  and  _253
REMARK  107  A    between atoms: _253  and  _254
REMARK  108  A    between atoms: _257  and  _259
REMARK  109  A    between atoms: _259  and  _260
REMARK  110  A    between atoms: _264  and  _265
REMARK  111  A    between atoms: _270  and  _272
REMARK  112  A    between atoms: _272  and  _273
REMARK  113  A    between atoms: _272  and  _275
REMARK  114  A    between atoms: _275  and  _276
REMARK  115  A    between atoms: _279  and  _281
REMARK  116  A    between atoms: _281  and  _282
REMARK  117  A    between atoms: _281  and  _284
REMARK  118  A    between atoms: _284  and  _285
REMARK  119  A    between atoms: _288  and  _290
REMARK  120  A    between atoms: _290  and  _291
REMARK  121  A    between atoms: _293  and  _295
REMARK  122  A    between atoms: _295  and  _296
REMARK  123  A    between atoms: _295  and  _298
REMARK  124  A    between atoms: _298  and  _299
REMARK  125  A    between atoms: _304  and  _305
REMARK  126  A    between atoms: _307  and  _309
REMARK  127  A    between atoms: _309  and  _310
REMARK  128  A    between atoms: _309  and  _312
REMARK  129  A    between atoms: _312  and  _313
REMARK  130  A    between atoms: _313  and  _314
REMARK  131  A    between atoms: _316  and  _318
REMARK  132  A    between atoms: _318  and  _319
REMARK  133  A    between atoms: _318  and  _321
REMARK  134  A    between atoms: _321  and  _322
REMARK  135  A    between atoms: _328  and  _330
REMARK  136  A    between atoms: _330  and  _331
REMARK  137  A    between atoms: _333  and  _335
REMARK  138  A    between atoms: _335  and  _336
REMARK  139  A    between atoms: _335  and  _338
REMARK  140  A    between atoms: _338  and  _339
REMARK  141  A    between atoms: _339  and  _340
REMARK  142  A    between atoms: _340  and  _341
REMARK  143  A    between atoms: _341  and  _342
REMARK  144  A    between atoms: _346  and  _348
REMARK  145  A    between atoms: _348  and  _349
REMARK  146  A    between atoms: _351  and  _353
REMARK  147  A    between atoms: _353  and  _354
REMARK  148  A    between atoms: _353  and  _356
REMARK  149  A    between atoms: _356  and  _357
REMARK  150  A    between atoms: _360  and  _362
REMARK  151  A    between atoms: _362  and  _363
REMARK  152  A    between atoms: _362  and  _365
REMARK  153  A    between atoms: _365  and  _366
REMARK  154  A    between atoms: _371  and  _372
REMARK  155  A    between atoms: _374  and  _376
REMARK  156  A    between atoms: _376  and  _377
REMARK  157  A    between atoms: _376  and  _379
REMARK  158  A    between atoms: _379  and  _380
REMARK  159  A    between atoms: _386  and  _388
REMARK  160  A    between atoms: _388  and  _389
REMARK  161  A    between atoms: _392  and  _394
REMARK  162  A    between atoms: _394  and  _395
REMARK  163  A    between atoms: _394  and  _397
REMARK  164  A    between atoms: _397  and  _398
REMARK  165  A    between atoms: _401  and  _403
REMARK  166  A    between atoms: _403  and  _404
REMARK  167  A    between atoms: _403  and  _406
REMARK  168  A    between atoms: _406  and  _407
REMARK  169  A    between atoms: _407  and  _408
REMARK  170  A    between atoms: _410  and  _412
REMARK  171  A    between atoms: _412  and  _413
REMARK  172  A    between atoms: _412  and  _415
REMARK  173  A    between atoms: _415  and  _416
REMARK  174  A    between atoms: _418  and  _420
REMARK  175  A    between atoms: _420  and  _421
REMARK  176  A    between atoms: _420  and  _423
REMARK  177  A    between atoms: _423  and  _424
REMARK  178  A    between atoms: _426  and  _428
REMARK  179  A    between atoms: _428  and  _429
REMARK  180  A    between atoms: _428  and  _431
REMARK  181  A    between atoms: _431  and  _432
REMARK  182  A    between atoms: _432  and  _433
REMARK  183  A    between atoms: _433  and  _434
REMARK  184  A    between atoms: _434  and  _435
REMARK  185  A    between atoms: _439  and  _441
REMARK  186  A    between atoms: _441  and  _442
REMARK  187  A    between atoms: _441  and  _444
REMARK  188  A    between atoms: _444  and  _445
REMARK  189  A    between atoms: _447  and  _449
REMARK  190  A    between atoms: _449  and  _450
REMARK  191  A    between atoms: _453  and  _455
REMARK  192  A    between atoms: _455  and  _456
REMARK  193  A    between atoms: _455  and  _458
REMARK  194  A    between atoms: _458  and  _459
REMARK  195  A    between atoms: _464  and  _466
REMARK  196  A    between atoms: _466  and  _467
REMARK  197  A    between atoms: _466  and  _469
REMARK  198  A    between atoms: _469  and  _470
REMARK  199  A    between atoms: _475  and  _476
REMARK  200  A    between atoms: _478  and  _480
REMARK  201  A    between atoms: _480  and  _481
REMARK  202  A    between atoms: _480  and  _483
REMARK  203  A    between atoms: _485  and  _487
REMARK  204  A    between atoms: _487  and  _488
REMARK  205  A    between atoms: _487  and  _490
REMARK  206  A    between atoms: _490  and  _491
REMARK  207  A    between atoms: _497  and  _499
REMARK  208  A    between atoms: _499  and  _500
REMARK  209  A    between atoms: _499  and  _502
REMARK  210  A    between atoms: _502  and  _503
REMARK  211  A    between atoms: _506  and  _508
REMARK  212  A    between atoms: _508  and  _509
REMARK  213  A    between atoms: _508  and  _511
REMARK  214  A    between atoms: _511  and  _512
REMARK  215  A    between atoms: _515  and  _517
REMARK  216  A    between atoms: _517  and  _518
REMARK  217  A    between atoms: _520  and  _522
REMARK  218  A    between atoms: _522  and  _523
REMARK  219  A    between atoms: _522  and  _525
REMARK  220  A    between atoms: _525  and  _526
REMARK  221  A    between atoms: _529  and  _531
REMARK  222  A    between atoms: _531  and  _532
REMARK  223  A    between atoms: _531  and  _534
REMARK  224  A    between atoms: _534  and  _535
REMARK  225  A    between atoms: _540  and  _541
REMARK  226  A    between atoms: _543  and  _545
REMARK  227  A    between atoms: _545  and  _546
REMARK  228  A    between atoms: _545  and  _548
REMARK  229  A    between atoms: _548  and  _549
REMARK  230  A    between atoms: _554  and  _556
REMARK  231  A    between atoms: _556  and  _557
REMARK  232  A    between atoms: _556  and  _559
REMARK  233  A    between atoms: _559  and  _560
REMARK  234  A    between atoms: _560  and  _561
REMARK  235  A    between atoms: _564  and  _566
REMARK  236  A    between atoms: _566  and  _567
REMARK  237  A    between atoms: _566  and  _569
REMARK  238  A    between atoms: _569  and  _570
REMARK  239  A    between atoms: _575  and  _576
REMARK  240  A    between atoms: _578  and  _580
REMARK  241  A    between atoms: _580  and  _581
REMARK  242  A    between atoms: _580  and  _583
REMARK  243  A    between atoms: _583  and  _584
REMARK                            x       y       z     vdW  Elec       q    Type
REMARK                         _______ _______ _______ _____ _____    ______ ____
ROOT
ATOM      1  O   HOH     1      17.147 -25.149   5.779  0.00  0.00    +0.000 OA
ENDROOT
TORSDOF 0
REMARK  Name = ../refined-set-2016/4zzy/4zzy_pocket.pdb
REMARK  243 active torsions:
REMARK  status: ('A' for Active; 'I' for Inactive)
REMARK    1  A    between atoms: _1  and  _3
REMARK    2  A    between atoms: _3  and  _4
REMARK    3  A    between atoms: _3  and  _6
REMARK    4  A    between atoms: _6  and  _7
REMARK    5  A    between atoms: _12  and  _13
REMARK    6  A    between atoms: _15  and  _17
REMARK    7  A    between atoms: _17  and  _18
REMARK    8  A    between atoms: _17  and  _20
REMARK    9  A    between atoms: _20  and  _21
REMARK   10  A    between atoms: _24  and  _26
REMARK   11  A    between atoms: _26  and  _27
REMARK   12  A    between atoms: _26  and  _29
REMARK   13  A    between atoms: _29  and  _30
REMARK   14  A    between atoms: _30  and  _31
REMARK   15  A    between atoms: _34  and  _36
REMARK   16  A    between atoms: _36  and  _37
REMARK   17  A    between atoms: _36  and  _39
REMARK   18  A    between atoms: _39  and  _40
REMARK   19  A    between atoms: _40  and  _41
REMARK   20  A    between atoms: _46  and  _48
REMARK   21  A    between atoms: _48  and  _49
REMARK   22  A    between atoms: _48  and  _51
REMARK   23  A    between atoms: _51  and  _52
REMARK   24  A    between atoms: _52  and  _53
REMARK   25  A    between atoms: _53  and  _54
REMARK   26  A    between atoms: _54  and  _55
REMARK   27  A    between atoms: _59  and  _61
REMARK   28  A    between atoms: _61  and  _62
REMARK   29  A    between atoms: _61  and  _64
REMARK   30  A    between atoms: _64  and  _65
REMARK   31  A    between atoms: _65  and  _66
REMARK   32  A    between atoms: _69  and  _71
REMARK   33  A    between atoms: _71  and  _72
REMARK   34  A    between atoms: _71  and  _74
REMARK   35  A    between atoms: _74  and  _75
REMARK   36  A    between atoms: _78  and  _80
REMARK   37  A    between atoms: _80  and  _81
REMARK   38  A    between atoms: _80  and  _83
REMARK   39  A    between atoms: _83  and  _84
REMARK   40  A    between atoms: _86  and  _88
REMARK   41  A    between atoms: _88  and  _89
REMARK   42  A    between atoms: _88  and  _91
REMARK   43  A    between atoms: _91  and  _92
REMARK   44  A    between atoms: _92  and  _93
REMARK   45  A    between atoms: _96  and  _98
REMARK   46  A    between atoms: _98  and  _99
REMARK   47  A    between atoms: _98  and  _101
REMARK   48  A    between atoms: _101  and  _102
REMARK   49  A    between atoms: _102  and  _103
REMARK   50  A    between atoms: _103  and  _104
REMARK   51  A    between atoms: _104  and  _105
REMARK   52  A    between atoms: _109  and  _111
REMARK   53  A    between atoms: _111  and  _112
REMARK   54  A    between atoms: _111  and  _114
REMARK   55  A    between atoms: _114  and  _115
REMARK   56  A    between atoms: _118  and  _120
REMARK   57  A    between atoms: _120  and  _121
REMARK   58  A    between atoms: _120  and  _123
REMARK   59  A    between atoms: _123  and  _124
REMARK   60  A    between atoms: _124  and  _125
REMARK   61  A    between atoms: _130  and  _132
REMARK   62  A    between atoms: _132  and  _133
REMARK   63  A    between atoms: _132  and  _135
REMARK   64  A    between atoms: _135  and  _136
REMARK   65  A    between atoms: _139  and  _141
REMARK   66  A    between atoms: _141  and  _142
REMARK   67  A    between atoms: _141  and  _144
REMARK   68  A    between atoms: _144  and  _145
REMARK   69  A    between atoms: _145  and  _146
REMARK   70  A    between atoms: _149  and  _151
REMARK   71  A    between atoms: _151  and  _152
REMARK   72  A    between atoms: _151  and  _154
REMARK   73  A    between atoms: _154  and  _155
REMARK   74  A    between atoms: _158  and  _160
REMARK   75  A    between atoms: _160  and  _161
REMARK   76  A    between atoms: _160  and  _163
REMARK   77  A    between atoms: _163  and  _164
REMARK   78  A    between atoms: _174  and  _176
REMARK   79  A    between atoms: _176  and  _177
REMARK   80  A    between atoms: _176  and  _179
REMARK   81  A    between atoms: _179  and  _180
REMARK   82  A    between atoms: _185  and  _187
REMARK   83  A    between atoms: _187  and  _188
REMARK   84  A    between atoms: _190  and  _192
REMARK   85  A    between atoms: _192  and  _193
REMARK   86  A    between atoms: _192  and  _195
REMARK   87  A    between atoms: _195  and  _196
REMARK   88  A    between atoms: _198  and  _200
REMARK   89  A    between atoms: _200  and  _201
REMARK   90  A    between atoms: _200  and  _203
REMARK   91  A    between atoms: _203  and  _204
REMARK   92  A    between atoms: _204  and  _205
REMARK   93  A    between atoms: _205  and  _206
REMARK   94  A    between atoms: _215  and  _217
REMARK   95  A    between atoms: _217  and  _218
REMARK   96  A    between atoms: _217  and  _220
REMARK   97  A    between atoms: _220  and  _221
REMARK   98  A    between atoms: _226  and  _228
REMARK   99  A    between atoms: _228  and  _229
REMARK  100  A    between atoms: _228  and  _231
REMARK  101  A    between atoms: _231  and  _232
REMARK  102  A    between atoms: _242  and  _244
REMARK  103  A    between atoms: _244  and  _245
REMARK  104  A    between atoms: _244  and  _247
REMARK  105  A    between atoms: _247  and  _248
REMARK  106  A    between atoms: _251  and  _253
REMARK  107  A    between atoms: _253  and  _254
REMARK  108  A    between atoms: _257  and  _259
REMARK  109  A    between atoms: _259  and  _260
REMARK  110  A    between atoms: _264  and  _265
REMARK  111  A    between atoms: _270  and  _272
REMARK  112  A    between atoms: _272  and  _273
REMARK  113  A    between atoms: _272  and  _275
REMARK  114  A    between atoms: _275  and  _276
REMARK  115  A    between atoms: _279  and  _281
REMARK  116  A    between atoms: _281  and  _282
REMARK  117  A    between atoms: _281  and  _284
REMARK  118  A    between atoms: _284  and  _285
REMARK  119  A    between atoms: _288  and  _290
REMARK  120  A    between atoms: _290  and  _291
REMARK  121  A    between atoms: _293  and  _295
REMARK  122  A    between atoms: _295  and  _296
REMARK  123  A    between atoms: _295  and  _298
REMARK  124  A    between atoms: _298  and  _299
REMARK  125  A    between atoms: _304  and  _305
REMARK  126  A    between atoms: _307  and  _309
REMARK  127  A    between atoms: _309  and  _310
REMARK  128  A    between atoms: _309  and  _312
REMARK  129  A    between atoms: _312  and  _313
REMARK  130  A    between atoms: _313  and  _314
REMARK  131  A    between atoms: _316  and  _318
REMARK  132  A    between atoms: _318  and  _319
REMARK  133  A    between atoms: _318  and  _321
REMARK  134  A    between atoms: _321  and  _322
REMARK  135  A    between atoms: _328  and  _330
REMARK  136  A    between atoms: _330  and  _331
REMARK  137  A    between atoms: _333  and  _335
REMARK  138  A    between atoms: _335  and  _336
REMARK  139  A    between atoms: _335  and  _338
REMARK  140  A    between atoms: _338  and  _339
REMARK  141  A    between atoms: _339  and  _340
REMARK  142  A    between atoms: _340  and  _341
REMARK  143  A    between atoms: _341  and  _342
REMARK  144  A    between atoms: _346  and  _348
REMARK  145  A    between atoms: _348  and  _349
REMARK  146  A    between atoms: _351  and  _353
REMARK  147  A    between atoms: _353  and  _354
REMARK  148  A    between atoms: _353  and  _356
REMARK  149  A    between atoms: _356  and  _357
REMARK  150  A    between atoms: _360  and  _362
REMARK  151  A    between atoms: _362  and  _363
REMARK  152  A    between atoms: _362  and  _365
REMARK  153  A    between atoms: _365  and  _366
REMARK  154  A    between atoms: _371  and  _372
REMARK  155  A    between atoms: _374  and  _376
REMARK  156  A    between atoms: _376  and  _377
REMARK  157  A    between atoms: _376  and  _379
REMARK  158  A    between atoms: _379  and  _380
REMARK  159  A    between atoms: _386  and  _388
REMARK  160  A    between atoms: _388  and  _389
REMARK  161  A    between atoms: _392  and  _394
REMARK  162  A    between atoms: _394  and  _395
REMARK  163  A    between atoms: _394  and  _397
REMARK  164  A    between atoms: _397  and  _398
REMARK  165  A    between atoms: _401  and  _403
REMARK  166  A    between atoms: _403  and  _404
REMARK  167  A    between atoms: _403  and  _406
REMARK  168  A    between atoms: _406  and  _407
REMARK  169  A    between atoms: _407  and  _408
REMARK  170  A    between atoms: _410  and  _412
REMARK  171  A    between atoms: _412  and  _413
REMARK  172  A    between atoms: _412  and  _415
REMARK  173  A    between atoms: _415  and  _416
REMARK  174  A    between atoms: _418  and  _420
REMARK  175  A    between atoms: _420  and  _421
REMARK  176  A    between atoms: _420  and  _423
REMARK  177  A    between atoms: _423  and  _424
REMARK  178  A    between atoms: _426  and  _428
REMARK  179  A    between atoms: _428  and  _429
REMARK  180  A    between atoms: _428  and  _431
REMARK  181  A    between atoms: _431  and  _432
REMARK  182  A    between atoms: _432  and  _433
REMARK  183  A    between atoms: _433  and  _434
REMARK  184  A    between atoms: _434  and  _435
REMARK  185  A    between atoms: _439  and  _441
REMARK  186  A    between atoms: _441  and  _442
REMARK  187  A    between atoms: _441  and  _444
REMARK  188  A    between atoms: _444  and  _445
REMARK  189  A    between atoms: _447  and  _449
REMARK  190  A    between atoms: _449  and  _450
REMARK  191  A    between atoms: _453  and  _455
REMARK  192  A    between atoms: _455  and  _456
REMARK  193  A    between atoms: _455  and  _458
REMARK  194  A    between atoms: _458  and  _459
REMARK  195  A    between atoms: _464  and  _466
REMARK  196  A    between atoms: _466  and  _467
REMARK  197  A    between atoms: _466  and  _469
REMARK  198  A    between atoms: _469  and  _470
REMARK  199  A    between atoms: _475  and  _476
REMARK  200  A    between atoms: _478  and  _480
REMARK  201  A    between atoms: _480  and  _481
REMARK  202  A    between atoms: _480  and  _483
REMARK  203  A    between atoms: _485  and  _487
REMARK  204  A    between atoms: _487  and  _488
REMARK  205  A    between atoms: _487  and  _490
REMARK  206  A    between atoms: _490  and  _491
REMARK  207  A    between atoms: _497  and  _499
REMARK  208  A    between atoms: _499  and  _500
REMARK  209  A    between atoms: _499  and  _502
REMARK  210  A    between atoms: _502  and  _503
REMARK  211  A    between atoms: _506  and  _508
REMARK  212  A    between atoms: _508  and  _509
REMARK  213  A    between atoms: _508  and  _511
REMARK  214  A    between atoms: _511  and  _512
REMARK  215  A    between atoms: _515  and  _517
REMARK  216  A    between atoms: _517  and  _518
REMARK  217  A    between atoms: _520  and  _522
REMARK  218  A    between atoms: _522  and  _523
REMARK  219  A    between atoms: _522  and  _525
REMARK  220  A    between atoms: _525  and  _526
REMARK  221  A    between atoms: _529  and  _531
REMARK  222  A    between atoms: _531  and  _532
REMARK  223  A    between atoms: _531  and  _534
REMARK  224  A    between atoms: _534  and  _535
REMARK  225  A    between atoms: _540  and  _541
REMARK  226  A    between atoms: _543  and  _545
REMARK  227  A    between atoms: _545  and  _546
REMARK  228  A    between atoms: _545  and  _548
REMARK  229  A    between atoms: _548  and  _549
REMARK  230  A    between atoms: _554  and  _556
REMARK  231  A    between atoms: _556  and  _557
REMARK  232  A    between atoms: _556  and  _559
REMARK  233  A    between atoms: _559  and  _560
REMARK  234  A    between atoms: _560  and  _561
REMARK  235  A    between atoms: _564  and  _566
REMARK  236  A    between atoms: _566  and  _567
REMARK  237  A    between atoms: _566  and  _569
REMARK  238  A    between atoms: _569  and  _570
REMARK  239  A    between atoms: _575  and  _576
REMARK  240  A    between atoms: _578  and  _580
REMARK  241  A    between atoms: _580  and  _581
REMARK  242  A    between atoms: _580  and  _583
REMARK  243  A    between atoms: _583  and  _584
REMARK                            x       y       z     vdW  Elec       q    Type
REMARK                         _______ _______ _______ _____ _____    ______ ____
ROOT
ATOM      1  O   HOH     1      18.536 -22.458   6.786  0.00  0.00    +0.000 OA
ENDROOT
TORSDOF 0
REMARK  Name = ../refined-set-2016/4zzy/4zzy_pocket.pdb
REMARK  243 active torsions:
REMARK  status: ('A' for Active; 'I' for Inactive)
REMARK    1  A    between atoms: _1  and  _3
REMARK    2  A    between atoms: _3  and  _4
REMARK    3  A    between atoms: _3  and  _6
REMARK    4  A    between atoms: _6  and  _7
REMARK    5  A    between atoms: _12  and  _13
REMARK    6  A    between atoms: _15  and  _17
REMARK    7  A    between atoms: _17  and  _18
REMARK    8  A    between atoms: _17  and  _20
REMARK    9  A    between atoms: _20  and  _21
REMARK   10  A    between atoms: _24  and  _26
REMARK   11  A    between atoms: _26  and  _27
REMARK   12  A    between atoms: _26  and  _29
REMARK   13  A    between atoms: _29  and  _30
REMARK   14  A    between atoms: _30  and  _31
REMARK   15  A    between atoms: _34  and  _36
REMARK   16  A    between atoms: _36  and  _37
REMARK   17  A    between atoms: _36  and  _39
REMARK   18  A    between atoms: _39  and  _40
REMARK   19  A    between atoms: _40  and  _41
REMARK   20  A    between atoms: _46  and  _48
REMARK   21  A    between atoms: _48  and  _49
REMARK   22  A    between atoms: _48  and  _51
REMARK   23  A    between atoms: _51  and  _52
REMARK   24  A    between atoms: _52  and  _53
REMARK   25  A    between atoms: _53  and  _54
REMARK   26  A    between atoms: _54  and  _55
REMARK   27  A    between atoms: _59  and  _61
REMARK   28  A    between atoms: _61  and  _62
REMARK   29  A    between atoms: _61  and  _64
REMARK   30  A    between atoms: _64  and  _65
REMARK   31  A    between atoms: _65  and  _66
REMARK   32  A    between atoms: _69  and  _71
REMARK   33  A    between atoms: _71  and  _72
REMARK   34  A    between atoms: _71  and  _74
REMARK   35  A    between atoms: _74  and  _75
REMARK   36  A    between atoms: _78  and  _80
REMARK   37  A    between atoms: _80  and  _81
REMARK   38  A    between atoms: _80  and  _83
REMARK   39  A    between atoms: _83  and  _84
REMARK   40  A    between atoms: _86  and  _88
REMARK   41  A    between atoms: _88  and  _89
REMARK   42  A    between atoms: _88  and  _91
REMARK   43  A    between atoms: _91  and  _92
REMARK   44  A    between atoms: _92  and  _93
REMARK   45  A    between atoms: _96  and  _98
REMARK   46  A    between atoms: _98  and  _99
REMARK   47  A    between atoms: _98  and  _101
REMARK   48  A    between atoms: _101  and  _102
REMARK   49  A    between atoms: _102  and  _103
REMARK   50  A    between atoms: _103  and  _104
REMARK   51  A    between atoms: _104  and  _105
REMARK   52  A    between atoms: _109  and  _111
REMARK   53  A    between atoms: _111  and  _112
REMARK   54  A    between atoms: _111  and  _114
REMARK   55  A    between atoms: _114  and  _115
REMARK   56  A    between atoms: _118  and  _120
REMARK   57  A    between atoms: _120  and  _121
REMARK   58  A    between atoms: _120  and  _123
REMARK   59  A    between atoms: _123  and  _124
REMARK   60  A    between atoms: _124  and  _125
REMARK   61  A    between atoms: _130  and  _132
REMARK   62  A    between atoms: _132  and  _133
REMARK   63  A    between atoms: _132  and  _135
REMARK   64  A    between atoms: _135  and  _136
REMARK   65  A    between atoms: _139  and  _141
REMARK   66  A    between atoms: _141  and  _142
REMARK   67  A    between atoms: _141  and  _144
REMARK   68  A    between atoms: _144  and  _145
REMARK   69  A    between atoms: _145  and  _146
REMARK   70  A    between atoms: _149  and  _151
REMARK   71  A    between atoms: _151  and  _152
REMARK   72  A    between atoms: _151  and  _154
REMARK   73  A    between atoms: _154  and  _155
REMARK   74  A    between atoms: _158  and  _160
REMARK   75  A    between atoms: _160  and  _161
REMARK   76  A    between atoms: _160  and  _163
REMARK   77  A    between atoms: _163  and  _164
REMARK   78  A    between atoms: _174  and  _176
REMARK   79  A    between atoms: _176  and  _177
REMARK   80  A    between atoms: _176  and  _179
REMARK   81  A    between atoms: _179  and  _180
REMARK   82  A    between atoms: _185  and  _187
REMARK   83  A    between atoms: _187  and  _188
REMARK   84  A    between atoms: _190  and  _192
REMARK   85  A    between atoms: _192  and  _193
REMARK   86  A    between atoms: _192  and  _195
REMARK   87  A    between atoms: _195  and  _196
REMARK   88  A    between atoms: _198  and  _200
REMARK   89  A    between atoms: _200  and  _201
REMARK   90  A    between atoms: _200  and  _203
REMARK   91  A    between atoms: _203  and  _204
REMARK   92  A    between atoms: _204  and  _205
REMARK   93  A    between atoms: _205  and  _206
REMARK   94  A    between atoms: _215  and  _217
REMARK   95  A    between atoms: _217  and  _218
REMARK   96  A    between atoms: _217  and  _220
REMARK   97  A    between atoms: _220  and  _221
REMARK   98  A    between atoms: _226  and  _228
REMARK   99  A    between atoms: _228  and  _229
REMARK  100  A    between atoms: _228  and  _231
REMARK  101  A    between atoms: _231  and  _232
REMARK  102  A    between atoms: _242  and  _244
REMARK  103  A    between atoms: _244  and  _245
REMARK  104  A    between atoms: _244  and  _247
REMARK  105  A    between atoms: _247  and  _248
REMARK  106  A    between atoms: _251  and  _253
REMARK  107  A    between atoms: _253  and  _254
REMARK  108  A    between atoms: _257  and  _259
REMARK  109  A    between atoms: _259  and  _260
REMARK  110  A    between atoms: _264  and  _265
REMARK  111  A    between atoms: _270  and  _272
REMARK  112  A    between atoms: _272  and  _273
REMARK  113  A    between atoms: _272  and  _275
REMARK  114  A    between atoms: _275  and  _276
REMARK  115  A    between atoms: _279  and  _281
REMARK  116  A    between atoms: _281  and  _282
REMARK  117  A    between atoms: _281  and  _284
REMARK  118  A    between atoms: _284  and  _285
REMARK  119  A    between atoms: _288  and  _290
REMARK  120  A    between atoms: _290  and  _291
REMARK  121  A    between atoms: _293  and  _295
REMARK  122  A    between atoms: _295  and  _296
REMARK  123  A    between atoms: _295  and  _298
REMARK  124  A    between atoms: _298  and  _299
REMARK  125  A    between atoms: _304  and  _305
REMARK  126  A    between atoms: _307  and  _309
REMARK  127  A    between atoms: _309  and  _310
REMARK  128  A    between atoms: _309  and  _312
REMARK  129  A    between atoms: _312  and  _313
REMARK  130  A    between atoms: _313  and  _314
REMARK  131  A    between atoms: _316  and  _318
REMARK  132  A    between atoms: _318  and  _319
REMARK  133  A    between atoms: _318  and  _321
REMARK  134  A    between atoms: _321  and  _322
REMARK  135  A    between atoms: _328  and  _330
REMARK  136  A    between atoms: _330  and  _331
REMARK  137  A    between atoms: _333  and  _335
REMARK  138  A    between atoms: _335  and  _336
REMARK  139  A    between atoms: _335  and  _338
REMARK  140  A    between atoms: _338  and  _339
REMARK  141  A    between atoms: _339  and  _340
REMARK  142  A    between atoms: _340  and  _341
REMARK  143  A    between atoms: _341  and  _342
REMARK  144  A    between atoms: _346  and  _348
REMARK  145  A    between atoms: _348  and  _349
REMARK  146  A    between atoms: _351  and  _353
REMARK  147  A    between atoms: _353  and  _354
REMARK  148  A    between atoms: _353  and  _356
REMARK  149  A    between atoms: _356  and  _357
REMARK  150  A    between atoms: _360  and  _362
REMARK  151  A    between atoms: _362  and  _363
REMARK  152  A    between atoms: _362  and  _365
REMARK  153  A    between atoms: _365  and  _366
REMARK  154  A    between atoms: _371  and  _372
REMARK  155  A    between atoms: _374  and  _376
REMARK  156  A    between atoms: _376  and  _377
REMARK  157  A    between atoms: _376  and  _379
REMARK  158  A    between atoms: _379  and  _380
REMARK  159  A    between atoms: _386  and  _388
REMARK  160  A    between atoms: _388  and  _389
REMARK  161  A    between atoms: _392  and  _394
REMARK  162  A    between atoms: _394  and  _395
REMARK  163  A    between atoms: _394  and  _397
REMARK  164  A    between atoms: _397  and  _398
REMARK  165  A    between atoms: _401  and  _403
REMARK  166  A    between atoms: _403  and  _404
REMARK  167  A    between atoms: _403  and  _406
REMARK  168  A    between atoms: _406  and  _407
REMARK  169  A    between atoms: _407  and  _408
REMARK  170  A    between atoms: _410  and  _412
REMARK  171  A    between atoms: _412  and  _413
REMARK  172  A    between atoms: _412  and  _415
REMARK  173  A    between atoms: _415  and  _416
REMARK  174  A    between atoms: _418  and  _420
REMARK  175  A    between atoms: _420  and  _421
REMARK  176  A    between atoms: _420  and  _423
REMARK  177  A    between atoms: _423  and  _424
REMARK  178  A    between atoms: _426  and  _428
REMARK  179  A    between atoms: _428  and  _429
REMARK  180  A    between atoms: _428  and  _431
REMARK  181  A    between atoms: _431  and  _432
REMARK  182  A    between atoms: _432  and  _433
REMARK  183  A    between atoms: _433  and  _434
REMARK  184  A    between atoms: _434  and  _435
REMARK  185  A    between atoms: _439  and  _441
REMARK  186  A    between atoms: _441  and  _442
REMARK  187  A    between atoms: _441  and  _444
REMARK  188  A    between atoms: _444  and  _445
REMARK  189  A    between atoms: _447  and  _449
REMARK  190  A    between atoms: _449  and  _450
REMARK  191  A    between atoms: _453  and  _455
REMARK  192  A    between atoms: _455  and  _456
REMARK  193  A    between atoms: _455  and  _458
REMARK  194  A    between atoms: _458  and  _459
REMARK  195  A    between atoms: _464  and  _466
REMARK  196  A    between atoms: _466  and  _467
REMARK  197  A    between atoms: _466  and  _469
REMARK  198  A    between atoms: _469  and  _470
REMARK  199  A    between atoms: _475  and  _476
REMARK  200  A    between atoms: _478  and  _480
REMARK  201  A    between atoms: _480  and  _481
REMARK  202  A    between atoms: _480  and  _483
REMARK  203  A    between atoms: _485  and  _487
REMARK  204  A    between atoms: _487  and  _488
REMARK  205  A    between atoms: _487  and  _490
REMARK  206  A    between atoms: _490  and  _491
REMARK  207  A    between atoms: _497  and  _499
REMARK  208  A    between atoms: _499  and  _500
REMARK  209  A    between atoms: _499  and  _502
REMARK  210  A    between atoms: _502  and  _503
REMARK  211  A    between atoms: _506  and  _508
REMARK  212  A    between atoms: _508  and  _509
REMARK  213  A    between atoms: _508  and  _511
REMARK  214  A    between atoms: _511  and  _512
REMARK  215  A    between atoms: _515  and  _517
REMARK  216  A    between atoms: _517  and  _518
REMARK  217  A    between atoms: _520  and  _522
REMARK  218  A    between atoms: _522  and  _523
REMARK  219  A    between atoms: _522  and  _525
REMARK  220  A    between atoms: _525  and  _526
REMARK  221  A    between atoms: _529  and  _531
REMARK  222  A    between atoms: _531  and  _532
REMARK  223  A    between atoms: _531  and  _534
REMARK  224  A    between atoms: _534  and  _535
REMARK  225  A    between atoms: _540  and  _541
REMARK  226  A    between atoms: _543  and  _545
REMARK  227  A    between atoms: _545  and  _546
REMARK  228  A    between atoms: _545  and  _548
REMARK  229  A    between atoms: _548  and  _549
REMARK  230  A    between atoms: _554  and  _556
REMARK  231  A    between atoms: _556  and  _557
REMARK  232  A    between atoms: _556  and  _559
REMARK  233  A    between atoms: _559  and  _560
REMARK  234  A    between atoms: _560  and  _561
REMARK  235  A    between atoms: _564  and  _566
REMARK  236  A    between atoms: _566  and  _567
REMARK  237  A    between atoms: _566  and  _569
REMARK  238  A    between atoms: _569  and  _570
REMARK  239  A    between atoms: _575  and  _576
REMARK  240  A    between atoms: _578  and  _580
REMARK  241  A    between atoms: _580  and  _581
REMARK  242  A    between atoms: _580  and  _583
REMARK  243  A    between atoms: _583  and  _584
REMARK                            x       y       z     vdW  Elec       q    Type
REMARK                         _______ _______ _______ _____ _____    ______ ____
ROOT
ATOM      1  O   HOH     1      34.596 -27.484   3.546  0.00  0.00    +0.000 OA
ENDROOT
TORSDOF 0
REMARK  Name = ../refined-set-2016/4zzy/4zzy_pocket.pdb
REMARK  243 active torsions:
REMARK  status: ('A' for Active; 'I' for Inactive)
REMARK    1  A    between atoms: _1  and  _3
REMARK    2  A    between atoms: _3  and  _4
REMARK    3  A    between atoms: _3  and  _6
REMARK    4  A    between atoms: _6  and  _7
REMARK    5  A    between atoms: _12  and  _13
REMARK    6  A    between atoms: _15  and  _17
REMARK    7  A    between atoms: _17  and  _18
REMARK    8  A    between atoms: _17  and  _20
REMARK    9  A    between atoms: _20  and  _21
REMARK   10  A    between atoms: _24  and  _26
REMARK   11  A    between atoms: _26  and  _27
REMARK   12  A    between atoms: _26  and  _29
REMARK   13  A    between atoms: _29  and  _30
REMARK   14  A    between atoms: _30  and  _31
REMARK   15  A    between atoms: _34  and  _36
REMARK   16  A    between atoms: _36  and  _37
REMARK   17  A    between atoms: _36  and  _39
REMARK   18  A    between atoms: _39  and  _40
REMARK   19  A    between atoms: _40  and  _41
REMARK   20  A    between atoms: _46  and  _48
REMARK   21  A    between atoms: _48  and  _49
REMARK   22  A    between atoms: _48  and  _51
REMARK   23  A    between atoms: _51  and  _52
REMARK   24  A    between atoms: _52  and  _53
REMARK   25  A    between atoms: _53  and  _54
REMARK   26  A    between atoms: _54  and  _55
REMARK   27  A    between atoms: _59  and  _61
REMARK   28  A    between atoms: _61  and  _62
REMARK   29  A    between atoms: _61  and  _64
REMARK   30  A    between atoms: _64  and  _65
REMARK   31  A    between atoms: _65  and  _66
REMARK   32  A    between atoms: _69  and  _71
REMARK   33  A    between atoms: _71  and  _72
REMARK   34  A    between atoms: _71  and  _74
REMARK   35  A    between atoms: _74  and  _75
REMARK   36  A    between atoms: _78  and  _80
REMARK   37  A    between atoms: _80  and  _81
REMARK   38  A    between atoms: _80  and  _83
REMARK   39  A    between atoms: _83  and  _84
REMARK   40  A    between atoms: _86  and  _88
REMARK   41  A    between atoms: _88  and  _89
REMARK   42  A    between atoms: _88  and  _91
REMARK   43  A    between atoms: _91  and  _92
REMARK   44  A    between atoms: _92  and  _93
REMARK   45  A    between atoms: _96  and  _98
REMARK   46  A    between atoms: _98  and  _99
REMARK   47  A    between atoms: _98  and  _101
REMARK   48  A    between atoms: _101  and  _102
REMARK   49  A    between atoms: _102  and  _103
REMARK   50  A    between atoms: _103  and  _104
REMARK   51  A    between atoms: _104  and  _105
REMARK   52  A    between atoms: _109  and  _111
REMARK   53  A    between atoms: _111  and  _112
REMARK   54  A    between atoms: _111  and  _114
REMARK   55  A    between atoms: _114  and  _115
REMARK   56  A    between atoms: _118  and  _120
REMARK   57  A    between atoms: _120  and  _121
REMARK   58  A    between atoms: _120  and  _123
REMARK   59  A    between atoms: _123  and  _124
REMARK   60  A    between atoms: _124  and  _125
REMARK   61  A    between atoms: _130  and  _132
REMARK   62  A    between atoms: _132  and  _133
REMARK   63  A    between atoms: _132  and  _135
REMARK   64  A    between atoms: _135  and  _136
REMARK   65  A    between atoms: _139  and  _141
REMARK   66  A    between atoms: _141  and  _142
REMARK   67  A    between atoms: _141  and  _144
REMARK   68  A    between atoms: _144  and  _145
REMARK   69  A    between atoms: _145  and  _146
REMARK   70  A    between atoms: _149  and  _151
REMARK   71  A    between atoms: _151  and  _152
REMARK   72  A    between atoms: _151  and  _154
REMARK   73  A    between atoms: _154  and  _155
REMARK   74  A    between atoms: _158  and  _160
REMARK   75  A    between atoms: _160  and  _161
REMARK   76  A    between atoms: _160  and  _163
REMARK   77  A    between atoms: _163  and  _164
REMARK   78  A    between atoms: _174  and  _176
REMARK   79  A    between atoms: _176  and  _177
REMARK   80  A    between atoms: _176  and  _179
REMARK   81  A    between atoms: _179  and  _180
REMARK   82  A    between atoms: _185  and  _187
REMARK   83  A    between atoms: _187  and  _188
REMARK   84  A    between atoms: _190  and  _192
REMARK   85  A    between atoms: _192  and  _193
REMARK   86  A    between atoms: _192  and  _195
REMARK   87  A    between atoms: _195  and  _196
REMARK   88  A    between atoms: _198  and  _200
REMARK   89  A    between atoms: _200  and  _201
REMARK   90  A    between atoms: _200  and  _203
REMARK   91  A    between atoms: _203  and  _204
REMARK   92  A    between atoms: _204  and  _205
REMARK   93  A    between atoms: _205  and  _206
REMARK   94  A    between atoms: _215  and  _217
REMARK   95  A    between atoms: _217  and  _218
REMARK   96  A    between atoms: _217  and  _220
REMARK   97  A    between atoms: _220  and  _221
REMARK   98  A    between atoms: _226  and  _228
REMARK   99  A    between atoms: _228  and  _229
REMARK  100  A    between atoms: _228  and  _231
REMARK  101  A    between atoms: _231  and  _232
REMARK  102  A    between atoms: _242  and  _244
REMARK  103  A    between atoms: _244  and  _245
REMARK  104  A    between atoms: _244  and  _247
REMARK  105  A    between atoms: _247  and  _248
REMARK  106  A    between atoms: _251  and  _253
REMARK  107  A    between atoms: _253  and  _254
REMARK  108  A    between atoms: _257  and  _259
REMARK  109  A    between atoms: _259  and  _260
REMARK  110  A    between atoms: _264  and  _265
REMARK  111  A    between atoms: _270  and  _272
REMARK  112  A    between atoms: _272  and  _273
REMARK  113  A    between atoms: _272  and  _275
REMARK  114  A    between atoms: _275  and  _276
REMARK  115  A    between atoms: _279  and  _281
REMARK  116  A    between atoms: _281  and  _282
REMARK  117  A    between atoms: _281  and  _284
REMARK  118  A    between atoms: _284  and  _285
REMARK  119  A    between atoms: _288  and  _290
REMARK  120  A    between atoms: _290  and  _291
REMARK  121  A    between atoms: _293  and  _295
REMARK  122  A    between atoms: _295  and  _296
REMARK  123  A    between atoms: _295  and  _298
REMARK  124  A    between atoms: _298  and  _299
REMARK  125  A    between atoms: _304  and  _305
REMARK  126  A    between atoms: _307  and  _309
REMARK  127  A    between atoms: _309  and  _310
REMARK  128  A    between atoms: _309  and  _312
REMARK  129  A    between atoms: _312  and  _313
REMARK  130  A    between atoms: _313  and  _314
REMARK  131  A    between atoms: _316  and  _318
REMARK  132  A    between atoms: _318  and  _319
REMARK  133  A    between atoms: _318  and  _321
REMARK  134  A    between atoms: _321  and  _322
REMARK  135  A    between atoms: _328  and  _330
REMARK  136  A    between atoms: _330  and  _331
REMARK  137  A    between atoms: _333  and  _335
REMARK  138  A    between atoms: _335  and  _336
REMARK  139  A    between atoms: _335  and  _338
REMARK  140  A    between atoms: _338  and  _339
REMARK  141  A    between atoms: _339  and  _340
REMARK  142  A    between atoms: _340  and  _341
REMARK  143  A    between atoms: _341  and  _342
REMARK  144  A    between atoms: _346  and  _348
REMARK  145  A    between atoms: _348  and  _349
REMARK  146  A    between atoms: _351  and  _353
REMARK  147  A    between atoms: _353  and  _354
REMARK  148  A    between atoms: _353  and  _356
REMARK  149  A    between atoms: _356  and  _357
REMARK  150  A    between atoms: _360  and  _362
REMARK  151  A    between atoms: _362  and  _363
REMARK  152  A    between atoms: _362  and  _365
REMARK  153  A    between atoms: _365  and  _366
REMARK  154  A    between atoms: _371  and  _372
REMARK  155  A    between atoms: _374  and  _376
REMARK  156  A    between atoms: _376  and  _377
REMARK  157  A    between atoms: _376  and  _379
REMARK  158  A    between atoms: _379  and  _380
REMARK  159  A    between atoms: _386  and  _388
REMARK  160  A    between atoms: _388  and  _389
REMARK  161  A    between atoms: _392  and  _394
REMARK  162  A    between atoms: _394  and  _395
REMARK  163  A    between atoms: _394  and  _397
REMARK  164  A    between atoms: _397  and  _398
REMARK  165  A    between atoms: _401  and  _403
REMARK  166  A    between atoms: _403  and  _404
REMARK  167  A    between atoms: _403  and  _406
REMARK  168  A    between atoms: _406  and  _407
REMARK  169  A    between atoms: _407  and  _408
REMARK  170  A    between atoms: _410  and  _412
REMARK  171  A    between atoms: _412  and  _413
REMARK  172  A    between atoms: _412  and  _415
REMARK  173  A    between atoms: _415  and  _416
REMARK  174  A    between atoms: _418  and  _420
REMARK  175  A    between atoms: _420  and  _421
REMARK  176  A    between atoms: _420  and  _423
REMARK  177  A    between atoms: _423  and  _424
REMARK  178  A    between atoms: _426  and  _428
REMARK  179  A    between atoms: _428  and  _429
REMARK  180  A    between atoms: _428  and  _431
REMARK  181  A    between atoms: _431  and  _432
REMARK  182  A    between atoms: _432  and  _433
REMARK  183  A    between atoms: _433  and  _434
REMARK  184  A    between atoms: _434  and  _435
REMARK  185  A    between atoms: _439  and  _441
REMARK  186  A    between atoms: _441  and  _442
REMARK  187  A    between atoms: _441  and  _444
REMARK  188  A    between atoms: _444  and  _445
REMARK  189  A    between atoms: _447  and  _449
REMARK  190  A    between atoms: _449  and  _450
REMARK  191  A    between atoms: _453  and  _455
REMARK  192  A    between atoms: _455  and  _456
REMARK  193  A    between atoms: _455  and  _458
REMARK  194  A    between atoms: _458  and  _459
REMARK  195  A    between atoms: _464  and  _466
REMARK  196  A    between atoms: _466  and  _467
REMARK  197  A    between atoms: _466  and  _469
REMARK  198  A    between atoms: _469  and  _470
REMARK  199  A    between atoms: _475  and  _476
REMARK  200  A    between atoms: _478  and  _480
REMARK  201  A    between atoms: _480  and  _481
REMARK  202  A    between atoms: _480  and  _483
REMARK  203  A    between atoms: _485  and  _487
REMARK  204  A    between atoms: _487  and  _488
REMARK  205  A    between atoms: _487  and  _490
REMARK  206  A    between atoms: _490  and  _491
REMARK  207  A    between atoms: _497  and  _499
REMARK  208  A    between atoms: _499  and  _500
REMARK  209  A    between atoms: _499  and  _502
REMARK  210  A    between atoms: _502  and  _503
REMARK  211  A    between atoms: _506  and  _508
REMARK  212  A    between atoms: _508  and  _509
REMARK  213  A    between atoms: _508  and  _511
REMARK  214  A    between atoms: _511  and  _512
REMARK  215  A    between atoms: _515  and  _517
REMARK  216  A    between atoms: _517  and  _518
REMARK  217  A    between atoms: _520  and  _522
REMARK  218  A    between atoms: _522  and  _523
REMARK  219  A    between atoms: _522  and  _525
REMARK  220  A    between atoms: _525  and  _526
REMARK  221  A    between atoms: _529  and  _531
REMARK  222  A    between atoms: _531  and  _532
REMARK  223  A    between atoms: _531  and  _534
REMARK  224  A    between atoms: _534  and  _535
REMARK  225  A    between atoms: _540  and  _541
REMARK  226  A    between atoms: _543  and  _545
REMARK  227  A    between atoms: _545  and  _546
REMARK  228  A    between atoms: _545  and  _548
REMARK  229  A    between atoms: _548  and  _549
REMARK  230  A    between atoms: _554  and  _556
REMARK  231  A    between atoms: _556  and  _557
REMARK  232  A    between atoms: _556  and  _559
REMARK  233  A    between atoms: _559  and  _560
REMARK  234  A    between atoms: _560  and  _561
REMARK  235  A    between atoms: _564  and  _566
REMARK  236  A    between atoms: _566  and  _567
REMARK  237  A    between atoms: _566  and  _569
REMARK  238  A    between atoms: _569  and  _570
REMARK  239  A    between atoms: _575  and  _576
REMARK  240  A    between atoms: _578  and  _580
REMARK  241  A    between atoms: _580  and  _581
REMARK  242  A    between atoms: _580  and  _583
REMARK  243  A    between atoms: _583  and  _584
REMARK                            x       y       z     vdW  Elec       q    Type
REMARK                         _______ _______ _______ _____ _____    ______ ____
ROOT
ATOM      1  O   HOH     1      26.605 -14.258   0.218  0.00  0.00    +0.000 OA
ENDROOT
TORSDOF 0
REMARK  Name = ../refined-set-2016/4zzy/4zzy_pocket.pdb
REMARK  243 active torsions:
REMARK  status: ('A' for Active; 'I' for Inactive)
REMARK    1  A    between atoms: _1  and  _3
REMARK    2  A    between atoms: _3  and  _4
REMARK    3  A    between atoms: _3  and  _6
REMARK    4  A    between atoms: _6  and  _7
REMARK    5  A    between atoms: _12  and  _13
REMARK    6  A    between atoms: _15  and  _17
REMARK    7  A    between atoms: _17  and  _18
REMARK    8  A    between atoms: _17  and  _20
REMARK    9  A    between atoms: _20  and  _21
REMARK   10  A    between atoms: _24  and  _26
REMARK   11  A    between atoms: _26  and  _27
REMARK   12  A    between atoms: _26  and  _29
REMARK   13  A    between atoms: _29  and  _30
REMARK   14  A    between atoms: _30  and  _31
REMARK   15  A    between atoms: _34  and  _36
REMARK   16  A    between atoms: _36  and  _37
REMARK   17  A    between atoms: _36  and  _39
REMARK   18  A    between atoms: _39  and  _40
REMARK   19  A    between atoms: _40  and  _41
REMARK   20  A    between atoms: _46  and  _48
REMARK   21  A    between atoms: _48  and  _49
REMARK   22  A    between atoms: _48  and  _51
REMARK   23  A    between atoms: _51  and  _52
REMARK   24  A    between atoms: _52  and  _53
REMARK   25  A    between atoms: _53  and  _54
REMARK   26  A    between atoms: _54  and  _55
REMARK   27  A    between atoms: _59  and  _61
REMARK   28  A    between atoms: _61  and  _62
REMARK   29  A    between atoms: _61  and  _64
REMARK   30  A    between atoms: _64  and  _65
REMARK   31  A    between atoms: _65  and  _66
REMARK   32  A    between atoms: _69  and  _71
REMARK   33  A    between atoms: _71  and  _72
REMARK   34  A    between atoms: _71  and  _74
REMARK   35  A    between atoms: _74  and  _75
REMARK   36  A    between atoms: _78  and  _80
REMARK   37  A    between atoms: _80  and  _81
REMARK   38  A    between atoms: _80  and  _83
REMARK   39  A    between atoms: _83  and  _84
REMARK   40  A    between atoms: _86  and  _88
REMARK   41  A    between atoms: _88  and  _89
REMARK   42  A    between atoms: _88  and  _91
REMARK   43  A    between atoms: _91  and  _92
REMARK   44  A    between atoms: _92  and  _93
REMARK   45  A    between atoms: _96  and  _98
REMARK   46  A    between atoms: _98  and  _99
REMARK   47  A    between atoms: _98  and  _101
REMARK   48  A    between atoms: _101  and  _102
REMARK   49  A    between atoms: _102  and  _103
REMARK   50  A    between atoms: _103  and  _104
REMARK   51  A    between atoms: _104  and  _105
REMARK   52  A    between atoms: _109  and  _111
REMARK   53  A    between atoms: _111  and  _112
REMARK   54  A    between atoms: _111  and  _114
REMARK   55  A    between atoms: _114  and  _115
REMARK   56  A    between atoms: _118  and  _120
REMARK   57  A    between atoms: _120  and  _121
REMARK   58  A    between atoms: _120  and  _123
REMARK   59  A    between atoms: _123  and  _124
REMARK   60  A    between atoms: _124  and  _125
REMARK   61  A    between atoms: _130  and  _132
REMARK   62  A    between atoms: _132  and  _133
REMARK   63  A    between atoms: _132  and  _135
REMARK   64  A    between atoms: _135  and  _136
REMARK   65  A    between atoms: _139  and  _141
REMARK   66  A    between atoms: _141  and  _142
REMARK   67  A    between atoms: _141  and  _144
REMARK   68  A    between atoms: _144  and  _145
REMARK   69  A    between atoms: _145  and  _146
REMARK   70  A    between atoms: _149  and  _151
REMARK   71  A    between atoms: _151  and  _152
REMARK   72  A    between atoms: _151  and  _154
REMARK   73  A    between atoms: _154  and  _155
REMARK   74  A    between atoms: _158  and  _160
REMARK   75  A    between atoms: _160  and  _161
REMARK   76  A    between atoms: _160  and  _163
REMARK   77  A    between atoms: _163  and  _164
REMARK   78  A    between atoms: _174  and  _176
REMARK   79  A    between atoms: _176  and  _177
REMARK   80  A    between atoms: _176  and  _179
REMARK   81  A    between atoms: _179  and  _180
REMARK   82  A    between atoms: _185  and  _187
REMARK   83  A    between atoms: _187  and  _188
REMARK   84  A    between atoms: _190  and  _192
REMARK   85  A    between atoms: _192  and  _193
REMARK   86  A    between atoms: _192  and  _195
REMARK   87  A    between atoms: _195  and  _196
REMARK   88  A    between atoms: _198  and  _200
REMARK   89  A    between atoms: _200  and  _201
REMARK   90  A    between atoms: _200  and  _203
REMARK   91  A    between atoms: _203  and  _204
REMARK   92  A    between atoms: _204  and  _205
REMARK   93  A    between atoms: _205  and  _206
REMARK   94  A    between atoms: _215  and  _217
REMARK   95  A    between atoms: _217  and  _218
REMARK   96  A    between atoms: _217  and  _220
REMARK   97  A    between atoms: _220  and  _221
REMARK   98  A    between atoms: _226  and  _228
REMARK   99  A    between atoms: _228  and  _229
REMARK  100  A    between atoms: _228  and  _231
REMARK  101  A    between atoms: _231  and  _232
REMARK  102  A    between atoms: _242  and  _244
REMARK  103  A    between atoms: _244  and  _245
REMARK  104  A    between atoms: _244  and  _247
REMARK  105  A    between atoms: _247  and  _248
REMARK  106  A    between atoms: _251  and  _253
REMARK  107  A    between atoms: _253  and  _254
REMARK  108  A    between atoms: _257  and  _259
REMARK  109  A    between atoms: _259  and  _260
REMARK  110  A    between atoms: _264  and  _265
REMARK  111  A    between atoms: _270  and  _272
REMARK  112  A    between atoms: _272  and  _273
REMARK  113  A    between atoms: _272  and  _275
REMARK  114  A    between atoms: _275  and  _276
REMARK  115  A    between atoms: _279  and  _281
REMARK  116  A    between atoms: _281  and  _282
REMARK  117  A    between atoms: _281  and  _284
REMARK  118  A    between atoms: _284  and  _285
REMARK  119  A    between atoms: _288  and  _290
REMARK  120  A    between atoms: _290  and  _291
REMARK  121  A    between atoms: _293  and  _295
REMARK  122  A    between atoms: _295  and  _296
REMARK  123  A    between atoms: _295  and  _298
REMARK  124  A    between atoms: _298  and  _299
REMARK  125  A    between atoms: _304  and  _305
REMARK  126  A    between atoms: _307  and  _309
REMARK  127  A    between atoms: _309  and  _310
REMARK  128  A    between atoms: _309  and  _312
REMARK  129  A    between atoms: _312  and  _313
REMARK  130  A    between atoms: _313  and  _314
REMARK  131  A    between atoms: _316  and  _318
REMARK  132  A    between atoms: _318  and  _319
REMARK  133  A    between atoms: _318  and  _321
REMARK  134  A    between atoms: _321  and  _322
REMARK  135  A    between atoms: _328  and  _330
REMARK  136  A    between atoms: _330  and  _331
REMARK  137  A    between atoms: _333  and  _335
REMARK  138  A    between atoms: _335  and  _336
REMARK  139  A    between atoms: _335  and  _338
REMARK  140  A    between atoms: _338  and  _339
REMARK  141  A    between atoms: _339  and  _340
REMARK  142  A    between atoms: _340  and  _341
REMARK  143  A    between atoms: _341  and  _342
REMARK  144  A    between atoms: _346  and  _348
REMARK  145  A    between atoms: _348  and  _349
REMARK  146  A    between atoms: _351  and  _353
REMARK  147  A    between atoms: _353  and  _354
REMARK  148  A    between atoms: _353  and  _356
REMARK  149  A    between atoms: _356  and  _357
REMARK  150  A    between atoms: _360  and  _362
REMARK  151  A    between atoms: _362  and  _363
REMARK  152  A    between atoms: _362  and  _365
REMARK  153  A    between atoms: _365  and  _366
REMARK  154  A    between atoms: _371  and  _372
REMARK  155  A    between atoms: _374  and  _376
REMARK  156  A    between atoms: _376  and  _377
REMARK  157  A    between atoms: _376  and  _379
REMARK  158  A    between atoms: _379  and  _380
REMARK  159  A    between atoms: _386  and  _388
REMARK  160  A    between atoms: _388  and  _389
REMARK  161  A    between atoms: _392  and  _394
REMARK  162  A    between atoms: _394  and  _395
REMARK  163  A    between atoms: _394  and  _397
REMARK  164  A    between atoms: _397  and  _398
REMARK  165  A    between atoms: _401  and  _403
REMARK  166  A    between atoms: _403  and  _404
REMARK  167  A    between atoms: _403  and  _406
REMARK  168  A    between atoms: _406  and  _407
REMARK  169  A    between atoms: _407  and  _408
REMARK  170  A    between atoms: _410  and  _412
REMARK  171  A    between atoms: _412  and  _413
REMARK  172  A    between atoms: _412  and  _415
REMARK  173  A    between atoms: _415  and  _416
REMARK  174  A    between atoms: _418  and  _420
REMARK  175  A    between atoms: _420  and  _421
REMARK  176  A    between atoms: _420  and  _423
REMARK  177  A    between atoms: _423  and  _424
REMARK  178  A    between atoms: _426  and  _428
REMARK  179  A    between atoms: _428  and  _429
REMARK  180  A    between atoms: _428  and  _431
REMARK  181  A    between atoms: _431  and  _432
REMARK  182  A    between atoms: _432  and  _433
REMARK  183  A    between atoms: _433  and  _434
REMARK  184  A    between atoms: _434  and  _435
REMARK  185  A    between atoms: _439  and  _441
REMARK  186  A    between atoms: _441  and  _442
REMARK  187  A    between atoms: _441  and  _444
REMARK  188  A    between atoms: _444  and  _445
REMARK  189  A    between atoms: _447  and  _449
REMARK  190  A    between atoms: _449  and  _450
REMARK  191  A    between atoms: _453  and  _455
REMARK  192  A    between atoms: _455  and  _456
REMARK  193  A    between atoms: _455  and  _458
REMARK  194  A    between atoms: _458  and  _459
REMARK  195  A    between atoms: _464  and  _466
REMARK  196  A    between atoms: _466  and  _467
REMARK  197  A    between atoms: _466  and  _469
REMARK  198  A    between atoms: _469  and  _470
REMARK  199  A    between atoms: _475  and  _476
REMARK  200  A    between atoms: _478  and  _480
REMARK  201  A    between atoms: _480  and  _481
REMARK  202  A    between atoms: _480  and  _483
REMARK  203  A    between atoms: _485  and  _487
REMARK  204  A    between atoms: _487  and  _488
REMARK  205  A    between atoms: _487  and  _490
REMARK  206  A    between atoms: _490  and  _491
REMARK  207  A    between atoms: _497  and  _499
REMARK  208  A    between atoms: _499  and  _500
REMARK  209  A    between atoms: _499  and  _502
REMARK  210  A    between atoms: _502  and  _503
REMARK  211  A    between atoms: _506  and  _508
REMARK  212  A    between atoms: _508  and  _509
REMARK  213  A    between atoms: _508  and  _511
REMARK  214  A    between atoms: _511  and  _512
REMARK  215  A    between atoms: _515  and  _517
REMARK  216  A    between atoms: _517  and  _518
REMARK  217  A    between atoms: _520  and  _522
REMARK  218  A    between atoms: _522  and  _523
REMARK  219  A    between atoms: _522  and  _525
REMARK  220  A    between atoms: _525  and  _526
REMARK  221  A    between atoms: _529  and  _531
REMARK  222  A    between atoms: _531  and  _532
REMARK  223  A    between atoms: _531  and  _534
REMARK  224  A    between atoms: _534  and  _535
REMARK  225  A    between atoms: _540  and  _541
REMARK  226  A    between atoms: _543  and  _545
REMARK  227  A    between atoms: _545  and  _546
REMARK  228  A    between atoms: _545  and  _548
REMARK  229  A    between atoms: _548  and  _549
REMARK  230  A    between atoms: _554  and  _556
REMARK  231  A    between atoms: _556  and  _557
REMARK  232  A    between atoms: _556  and  _559
REMARK  233  A    between atoms: _559  and  _560
REMARK  234  A    between atoms: _560  and  _561
REMARK  235  A    between atoms: _564  and  _566
REMARK  236  A    between atoms: _566  and  _567
REMARK  237  A    between atoms: _566  and  _569
REMARK  238  A    between atoms: _569  and  _570
REMARK  239  A    between atoms: _575  and  _576
REMARK  240  A    between atoms: _578  and  _580
REMARK  241  A    between atoms: _580  and  _581
REMARK  242  A    between atoms: _580  and  _583
REMARK  243  A    between atoms: _583  and  _584
REMARK                            x       y       z     vdW  Elec       q    Type
REMARK                         _______ _______ _______ _____ _____    ______ ____
ROOT
ATOM      1  O   HOH     1      21.763 -22.079   0.042  0.00  0.00    +0.000 OA
ENDROOT
TORSDOF 0
REMARK  Name = ../refined-set-2016/4zzy/4zzy_pocket.pdb
REMARK  243 active torsions:
REMARK  status: ('A' for Active; 'I' for Inactive)
REMARK    1  A    between atoms: _1  and  _3
REMARK    2  A    between atoms: _3  and  _4
REMARK    3  A    between atoms: _3  and  _6
REMARK    4  A    between atoms: _6  and  _7
REMARK    5  A    between atoms: _12  and  _13
REMARK    6  A    between atoms: _15  and  _17
REMARK    7  A    between atoms: _17  and  _18
REMARK    8  A    between atoms: _17  and  _20
REMARK    9  A    between atoms: _20  and  _21
REMARK   10  A    between atoms: _24  and  _26
REMARK   11  A    between atoms: _26  and  _27
REMARK   12  A    between atoms: _26  and  _29
REMARK   13  A    between atoms: _29  and  _30
REMARK   14  A    between atoms: _30  and  _31
REMARK   15  A    between atoms: _34  and  _36
REMARK   16  A    between atoms: _36  and  _37
REMARK   17  A    between atoms: _36  and  _39
REMARK   18  A    between atoms: _39  and  _40
REMARK   19  A    between atoms: _40  and  _41
REMARK   20  A    between atoms: _46  and  _48
REMARK   21  A    between atoms: _48  and  _49
REMARK   22  A    between atoms: _48  and  _51
REMARK   23  A    between atoms: _51  and  _52
REMARK   24  A    between atoms: _52  and  _53
REMARK   25  A    between atoms: _53  and  _54
REMARK   26  A    between atoms: _54  and  _55
REMARK   27  A    between atoms: _59  and  _61
REMARK   28  A    between atoms: _61  and  _62
REMARK   29  A    between atoms: _61  and  _64
REMARK   30  A    between atoms: _64  and  _65
REMARK   31  A    between atoms: _65  and  _66
REMARK   32  A    between atoms: _69  and  _71
REMARK   33  A    between atoms: _71  and  _72
REMARK   34  A    between atoms: _71  and  _74
REMARK   35  A    between atoms: _74  and  _75
REMARK   36  A    between atoms: _78  and  _80
REMARK   37  A    between atoms: _80  and  _81
REMARK   38  A    between atoms: _80  and  _83
REMARK   39  A    between atoms: _83  and  _84
REMARK   40  A    between atoms: _86  and  _88
REMARK   41  A    between atoms: _88  and  _89
REMARK   42  A    between atoms: _88  and  _91
REMARK   43  A    between atoms: _91  and  _92
REMARK   44  A    between atoms: _92  and  _93
REMARK   45  A    between atoms: _96  and  _98
REMARK   46  A    between atoms: _98  and  _99
REMARK   47  A    between atoms: _98  and  _101
REMARK   48  A    between atoms: _101  and  _102
REMARK   49  A    between atoms: _102  and  _103
REMARK   50  A    between atoms: _103  and  _104
REMARK   51  A    between atoms: _104  and  _105
REMARK   52  A    between atoms: _109  and  _111
REMARK   53  A    between atoms: _111  and  _112
REMARK   54  A    between atoms: _111  and  _114
REMARK   55  A    between atoms: _114  and  _115
REMARK   56  A    between atoms: _118  and  _120
REMARK   57  A    between atoms: _120  and  _121
REMARK   58  A    between atoms: _120  and  _123
REMARK   59  A    between atoms: _123  and  _124
REMARK   60  A    between atoms: _124  and  _125
REMARK   61  A    between atoms: _130  and  _132
REMARK   62  A    between atoms: _132  and  _133
REMARK   63  A    between atoms: _132  and  _135
REMARK   64  A    between atoms: _135  and  _136
REMARK   65  A    between atoms: _139  and  _141
REMARK   66  A    between atoms: _141  and  _142
REMARK   67  A    between atoms: _141  and  _144
REMARK   68  A    between atoms: _144  and  _145
REMARK   69  A    between atoms: _145  and  _146
REMARK   70  A    between atoms: _149  and  _151
REMARK   71  A    between atoms: _151  and  _152
REMARK   72  A    between atoms: _151  and  _154
REMARK   73  A    between atoms: _154  and  _155
REMARK   74  A    between atoms: _158  and  _160
REMARK   75  A    between atoms: _160  and  _161
REMARK   76  A    between atoms: _160  and  _163
REMARK   77  A    between atoms: _163  and  _164
REMARK   78  A    between atoms: _174  and  _176
REMARK   79  A    between atoms: _176  and  _177
REMARK   80  A    between atoms: _176  and  _179
REMARK   81  A    between atoms: _179  and  _180
REMARK   82  A    between atoms: _185  and  _187
REMARK   83  A    between atoms: _187  and  _188
REMARK   84  A    between atoms: _190  and  _192
REMARK   85  A    between atoms: _192  and  _193
REMARK   86  A    between atoms: _192  and  _195
REMARK   87  A    between atoms: _195  and  _196
REMARK   88  A    between atoms: _198  and  _200
REMARK   89  A    between atoms: _200  and  _201
REMARK   90  A    between atoms: _200  and  _203
REMARK   91  A    between atoms: _203  and  _204
REMARK   92  A    between atoms: _204  and  _205
REMARK   93  A    between atoms: _205  and  _206
REMARK   94  A    between atoms: _215  and  _217
REMARK   95  A    between atoms: _217  and  _218
REMARK   96  A    between atoms: _217  and  _220
REMARK   97  A    between atoms: _220  and  _221
REMARK   98  A    between atoms: _226  and  _228
REMARK   99  A    between atoms: _228  and  _229
REMARK  100  A    between atoms: _228  and  _231
REMARK  101  A    between atoms: _231  and  _232
REMARK  102  A    between atoms: _242  and  _244
REMARK  103  A    between atoms: _244  and  _245
REMARK  104  A    between atoms: _244  and  _247
REMARK  105  A    between atoms: _247  and  _248
REMARK  106  A    between atoms: _251  and  _253
REMARK  107  A    between atoms: _253  and  _254
REMARK  108  A    between atoms: _257  and  _259
REMARK  109  A    between atoms: _259  and  _260
REMARK  110  A    between atoms: _264  and  _265
REMARK  111  A    between atoms: _270  and  _272
REMARK  112  A    between atoms: _272  and  _273
REMARK  113  A    between atoms: _272  and  _275
REMARK  114  A    between atoms: _275  and  _276
REMARK  115  A    between atoms: _279  and  _281
REMARK  116  A    between atoms: _281  and  _282
REMARK  117  A    between atoms: _281  and  _284
REMARK  118  A    between atoms: _284  and  _285
REMARK  119  A    between atoms: _288  and  _290
REMARK  120  A    between atoms: _290  and  _291
REMARK  121  A    between atoms: _293  and  _295
REMARK  122  A    between atoms: _295  and  _296
REMARK  123  A    between atoms: _295  and  _298
REMARK  124  A    between atoms: _298  and  _299
REMARK  125  A    between atoms: _304  and  _305
REMARK  126  A    between atoms: _307  and  _309
REMARK  127  A    between atoms: _309  and  _310
REMARK  128  A    between atoms: _309  and  _312
REMARK  129  A    between atoms: _312  and  _313
REMARK  130  A    between atoms: _313  and  _314
REMARK  131  A    between atoms: _316  and  _318
REMARK  132  A    between atoms: _318  and  _319
REMARK  133  A    between atoms: _318  and  _321
REMARK  134  A    between atoms: _321  and  _322
REMARK  135  A    between atoms: _328  and  _330
REMARK  136  A    between atoms: _330  and  _331
REMARK  137  A    between atoms: _333  and  _335
REMARK  138  A    between atoms: _335  and  _336
REMARK  139  A    between atoms: _335  and  _338
REMARK  140  A    between atoms: _338  and  _339
REMARK  141  A    between atoms: _339  and  _340
REMARK  142  A    between atoms: _340  and  _341
REMARK  143  A    between atoms: _341  and  _342
REMARK  144  A    between atoms: _346  and  _348
REMARK  145  A    between atoms: _348  and  _349
REMARK  146  A    between atoms: _351  and  _353
REMARK  147  A    between atoms: _353  and  _354
REMARK  148  A    between atoms: _353  and  _356
REMARK  149  A    between atoms: _356  and  _357
REMARK  150  A    between atoms: _360  and  _362
REMARK  151  A    between atoms: _362  and  _363
REMARK  152  A    between atoms: _362  and  _365
REMARK  153  A    between atoms: _365  and  _366
REMARK  154  A    between atoms: _371  and  _372
REMARK  155  A    between atoms: _374  and  _376
REMARK  156  A    between atoms: _376  and  _377
REMARK  157  A    between atoms: _376  and  _379
REMARK  158  A    between atoms: _379  and  _380
REMARK  159  A    between atoms: _386  and  _388
REMARK  160  A    between atoms: _388  and  _389
REMARK  161  A    between atoms: _392  and  _394
REMARK  162  A    between atoms: _394  and  _395
REMARK  163  A    between atoms: _394  and  _397
REMARK  164  A    between atoms: _397  and  _398
REMARK  165  A    between atoms: _401  and  _403
REMARK  166  A    between atoms: _403  and  _404
REMARK  167  A    between atoms: _403  and  _406
REMARK  168  A    between atoms: _406  and  _407
REMARK  169  A    between atoms: _407  and  _408
REMARK  170  A    between atoms: _410  and  _412
REMARK  171  A    between atoms: _412  and  _413
REMARK  172  A    between atoms: _412  and  _415
REMARK  173  A    between atoms: _415  and  _416
REMARK  174  A    between atoms: _418  and  _420
REMARK  175  A    between atoms: _420  and  _421
REMARK  176  A    between atoms: _420  and  _423
REMARK  177  A    between atoms: _423  and  _424
REMARK  178  A    between atoms: _426  and  _428
REMARK  179  A    between atoms: _428  and  _429
REMARK  180  A    between atoms: _428  and  _431
REMARK  181  A    between atoms: _431  and  _432
REMARK  182  A    between atoms: _432  and  _433
REMARK  183  A    between atoms: _433  and  _434
REMARK  184  A    between atoms: _434  and  _435
REMARK  185  A    between atoms: _439  and  _441
REMARK  186  A    between atoms: _441  and  _442
REMARK  187  A    between atoms: _441  and  _444
REMARK  188  A    between atoms: _444  and  _445
REMARK  189  A    between atoms: _447  and  _449
REMARK  190  A    between atoms: _449  and  _450
REMARK  191  A    between atoms: _453  and  _455
REMARK  192  A    between atoms: _455  and  _456
REMARK  193  A    between atoms: _455  and  _458
REMARK  194  A    between atoms: _458  and  _459
REMARK  195  A    between atoms: _464  and  _466
REMARK  196  A    between atoms: _466  and  _467
REMARK  197  A    between atoms: _466  and  _469
REMARK  198  A    between atoms: _469  and  _470
REMARK  199  A    between atoms: _475  and  _476
REMARK  200  A    between atoms: _478  and  _480
REMARK  201  A    between atoms: _480  and  _481
REMARK  202  A    between atoms: _480  and  _483
REMARK  203  A    between atoms: _485  and  _487
REMARK  204  A    between atoms: _487  and  _488
REMARK  205  A    between atoms: _487  and  _490
REMARK  206  A    between atoms: _490  and  _491
REMARK  207  A    between atoms: _497  and  _499
REMARK  208  A    between atoms: _499  and  _500
REMARK  209  A    between atoms: _499  and  _502
REMARK  210  A    between atoms: _502  and  _503
REMARK  211  A    between atoms: _506  and  _508
REMARK  212  A    between atoms: _508  and  _509
REMARK  213  A    between atoms: _508  and  _511
REMARK  214  A    between atoms: _511  and  _512
REMARK  215  A    between atoms: _515  and  _517
REMARK  216  A    between atoms: _517  and  _518
REMARK  217  A    between atoms: _520  and  _522
REMARK  218  A    between atoms: _522  and  _523
REMARK  219  A    between atoms: _522  and  _525
REMARK  220  A    between atoms: _525  and  _526
REMARK  221  A    between atoms: _529  and  _531
REMARK  222  A    between atoms: _531  and  _532
REMARK  223  A    between atoms: _531  and  _534
REMARK  224  A    between atoms: _534  and  _535
REMARK  225  A    between atoms: _540  and  _541
REMARK  226  A    between atoms: _543  and  _545
REMARK  227  A    between atoms: _545  and  _546
REMARK  228  A    between atoms: _545  and  _548
REMARK  229  A    between atoms: _548  and  _549
REMARK  230  A    between atoms: _554  and  _556
REMARK  231  A    between atoms: _556  and  _557
REMARK  232  A    between atoms: _556  and  _559
REMARK  233  A    between atoms: _559  and  _560
REMARK  234  A    between atoms: _560  and  _561
REMARK  235  A    between atoms: _564  and  _566
REMARK  236  A    between atoms: _566  and  _567
REMARK  237  A    between atoms: _566  and  _569
REMARK  238  A    between atoms: _569  and  _570
REMARK  239  A    between atoms: _575  and  _576
REMARK  240  A    between atoms: _578  and  _580
REMARK  241  A    between atoms: _580  and  _581
REMARK  242  A    between atoms: _580  and  _583
REMARK  243  A    between atoms: _583  and  _584
REMARK                            x       y       z     vdW  Elec       q    Type
REMARK                         _______ _______ _______ _____ _____    ______ ____
ROOT
ATOM      1  O   HOH     1      17.900 -21.250   8.928  0.00  0.00    +0.000 OA
ENDROOT
TORSDOF 0
REMARK  Name = ../refined-set-2016/4zzy/4zzy_pocket.pdb
REMARK  243 active torsions:
REMARK  status: ('A' for Active; 'I' for Inactive)
REMARK    1  A    between atoms: _1  and  _3
REMARK    2  A    between atoms: _3  and  _4
REMARK    3  A    between atoms: _3  and  _6
REMARK    4  A    between atoms: _6  and  _7
REMARK    5  A    between atoms: _12  and  _13
REMARK    6  A    between atoms: _15  and  _17
REMARK    7  A    between atoms: _17  and  _18
REMARK    8  A    between atoms: _17  and  _20
REMARK    9  A    between atoms: _20  and  _21
REMARK   10  A    between atoms: _24  and  _26
REMARK   11  A    between atoms: _26  and  _27
REMARK   12  A    between atoms: _26  and  _29
REMARK   13  A    between atoms: _29  and  _30
REMARK   14  A    between atoms: _30  and  _31
REMARK   15  A    between atoms: _34  and  _36
REMARK   16  A    between atoms: _36  and  _37
REMARK   17  A    between atoms: _36  and  _39
REMARK   18  A    between atoms: _39  and  _40
REMARK   19  A    between atoms: _40  and  _41
REMARK   20  A    between atoms: _46  and  _48
REMARK   21  A    between atoms: _48  and  _49
REMARK   22  A    between atoms: _48  and  _51
REMARK   23  A    between atoms: _51  and  _52
REMARK   24  A    between atoms: _52  and  _53
REMARK   25  A    between atoms: _53  and  _54
REMARK   26  A    between atoms: _54  and  _55
REMARK   27  A    between atoms: _59  and  _61
REMARK   28  A    between atoms: _61  and  _62
REMARK   29  A    between atoms: _61  and  _64
REMARK   30  A    between atoms: _64  and  _65
REMARK   31  A    between atoms: _65  and  _66
REMARK   32  A    between atoms: _69  and  _71
REMARK   33  A    between atoms: _71  and  _72
REMARK   34  A    between atoms: _71  and  _74
REMARK   35  A    between atoms: _74  and  _75
REMARK   36  A    between atoms: _78  and  _80
REMARK   37  A    between atoms: _80  and  _81
REMARK   38  A    between atoms: _80  and  _83
REMARK   39  A    between atoms: _83  and  _84
REMARK   40  A    between atoms: _86  and  _88
REMARK   41  A    between atoms: _88  and  _89
REMARK   42  A    between atoms: _88  and  _91
REMARK   43  A    between atoms: _91  and  _92
REMARK   44  A    between atoms: _92  and  _93
REMARK   45  A    between atoms: _96  and  _98
REMARK   46  A    between atoms: _98  and  _99
REMARK   47  A    between atoms: _98  and  _101
REMARK   48  A    between atoms: _101  and  _102
REMARK   49  A    between atoms: _102  and  _103
REMARK   50  A    between atoms: _103  and  _104
REMARK   51  A    between atoms: _104  and  _105
REMARK   52  A    between atoms: _109  and  _111
REMARK   53  A    between atoms: _111  and  _112
REMARK   54  A    between atoms: _111  and  _114
REMARK   55  A    between atoms: _114  and  _115
REMARK   56  A    between atoms: _118  and  _120
REMARK   57  A    between atoms: _120  and  _121
REMARK   58  A    between atoms: _120  and  _123
REMARK   59  A    between atoms: _123  and  _124
REMARK   60  A    between atoms: _124  and  _125
REMARK   61  A    between atoms: _130  and  _132
REMARK   62  A    between atoms: _132  and  _133
REMARK   63  A    between atoms: _132  and  _135
REMARK   64  A    between atoms: _135  and  _136
REMARK   65  A    between atoms: _139  and  _141
REMARK   66  A    between atoms: _141  and  _142
REMARK   67  A    between atoms: _141  and  _144
REMARK   68  A    between atoms: _144  and  _145
REMARK   69  A    between atoms: _145  and  _146
REMARK   70  A    between atoms: _149  and  _151
REMARK   71  A    between atoms: _151  and  _152
REMARK   72  A    between atoms: _151  and  _154
REMARK   73  A    between atoms: _154  and  _155
REMARK   74  A    between atoms: _158  and  _160
REMARK   75  A    between atoms: _160  and  _161
REMARK   76  A    between atoms: _160  and  _163
REMARK   77  A    between atoms: _163  and  _164
REMARK   78  A    between atoms: _174  and  _176
REMARK   79  A    between atoms: _176  and  _177
REMARK   80  A    between atoms: _176  and  _179
REMARK   81  A    between atoms: _179  and  _180
REMARK   82  A    between atoms: _185  and  _187
REMARK   83  A    between atoms: _187  and  _188
REMARK   84  A    between atoms: _190  and  _192
REMARK   85  A    between atoms: _192  and  _193
REMARK   86  A    between atoms: _192  and  _195
REMARK   87  A    between atoms: _195  and  _196
REMARK   88  A    between atoms: _198  and  _200
REMARK   89  A    between atoms: _200  and  _201
REMARK   90  A    between atoms: _200  and  _203
REMARK   91  A    between atoms: _203  and  _204
REMARK   92  A    between atoms: _204  and  _205
REMARK   93  A    between atoms: _205  and  _206
REMARK   94  A    between atoms: _215  and  _217
REMARK   95  A    between atoms: _217  and  _218
REMARK   96  A    between atoms: _217  and  _220
REMARK   97  A    between atoms: _220  and  _221
REMARK   98  A    between atoms: _226  and  _228
REMARK   99  A    between atoms: _228  and  _229
REMARK  100  A    between atoms: _228  and  _231
REMARK  101  A    between atoms: _231  and  _232
REMARK  102  A    between atoms: _242  and  _244
REMARK  103  A    between atoms: _244  and  _245
REMARK  104  A    between atoms: _244  and  _247
REMARK  105  A    between atoms: _247  and  _248
REMARK  106  A    between atoms: _251  and  _253
REMARK  107  A    between atoms: _253  and  _254
REMARK  108  A    between atoms: _257  and  _259
REMARK  109  A    between atoms: _259  and  _260
REMARK  110  A    between atoms: _264  and  _265
REMARK  111  A    between atoms: _270  and  _272
REMARK  112  A    between atoms: _272  and  _273
REMARK  113  A    between atoms: _272  and  _275
REMARK  114  A    between atoms: _275  and  _276
REMARK  115  A    between atoms: _279  and  _281
REMARK  116  A    between atoms: _281  and  _282
REMARK  117  A    between atoms: _281  and  _284
REMARK  118  A    between atoms: _284  and  _285
REMARK  119  A    between atoms: _288  and  _290
REMARK  120  A    between atoms: _290  and  _291
REMARK  121  A    between atoms: _293  and  _295
REMARK  122  A    between atoms: _295  and  _296
REMARK  123  A    between atoms: _295  and  _298
REMARK  124  A    between atoms: _298  and  _299
REMARK  125  A    between atoms: _304  and  _305
REMARK  126  A    between atoms: _307  and  _309
REMARK  127  A    between atoms: _309  and  _310
REMARK  128  A    between atoms: _309  and  _312
REMARK  129  A    between atoms: _312  and  _313
REMARK  130  A    between atoms: _313  and  _314
REMARK  131  A    between atoms: _316  and  _318
REMARK  132  A    between atoms: _318  and  _319
REMARK  133  A    between atoms: _318  and  _321
REMARK  134  A    between atoms: _321  and  _322
REMARK  135  A    between atoms: _328  and  _330
REMARK  136  A    between atoms: _330  and  _331
REMARK  137  A    between atoms: _333  and  _335
REMARK  138  A    between atoms: _335  and  _336
REMARK  139  A    between atoms: _335  and  _338
REMARK  140  A    between atoms: _338  and  _339
REMARK  141  A    between atoms: _339  and  _340
REMARK  142  A    between atoms: _340  and  _341
REMARK  143  A    between atoms: _341  and  _342
REMARK  144  A    between atoms: _346  and  _348
REMARK  145  A    between atoms: _348  and  _349
REMARK  146  A    between atoms: _351  and  _353
REMARK  147  A    between atoms: _353  and  _354
REMARK  148  A    between atoms: _353  and  _356
REMARK  149  A    between atoms: _356  and  _357
REMARK  150  A    between atoms: _360  and  _362
REMARK  151  A    between atoms: _362  and  _363
REMARK  152  A    between atoms: _362  and  _365
REMARK  153  A    between atoms: _365  and  _366
REMARK  154  A    between atoms: _371  and  _372
REMARK  155  A    between atoms: _374  and  _376
REMARK  156  A    between atoms: _376  and  _377
REMARK  157  A    between atoms: _376  and  _379
REMARK  158  A    between atoms: _379  and  _380
REMARK  159  A    between atoms: _386  and  _388
REMARK  160  A    between atoms: _388  and  _389
REMARK  161  A    between atoms: _392  and  _394
REMARK  162  A    between atoms: _394  and  _395
REMARK  163  A    between atoms: _394  and  _397
REMARK  164  A    between atoms: _397  and  _398
REMARK  165  A    between atoms: _401  and  _403
REMARK  166  A    between atoms: _403  and  _404
REMARK  167  A    between atoms: _403  and  _406
REMARK  168  A    between atoms: _406  and  _407
REMARK  169  A    between atoms: _407  and  _408
REMARK  170  A    between atoms: _410  and  _412
REMARK  171  A    between atoms: _412  and  _413
REMARK  172  A    between atoms: _412  and  _415
REMARK  173  A    between atoms: _415  and  _416
REMARK  174  A    between atoms: _418  and  _420
REMARK  175  A    between atoms: _420  and  _421
REMARK  176  A    between atoms: _420  and  _423
REMARK  177  A    between atoms: _423  and  _424
REMARK  178  A    between atoms: _426  and  _428
REMARK  179  A    between atoms: _428  and  _429
REMARK  180  A    between atoms: _428  and  _431
REMARK  181  A    between atoms: _431  and  _432
REMARK  182  A    between atoms: _432  and  _433
REMARK  183  A    between atoms: _433  and  _434
REMARK  184  A    between atoms: _434  and  _435
REMARK  185  A    between atoms: _439  and  _441
REMARK  186  A    between atoms: _441  and  _442
REMARK  187  A    between atoms: _441  and  _444
REMARK  188  A    between atoms: _444  and  _445
REMARK  189  A    between atoms: _447  and  _449
REMARK  190  A    between atoms: _449  and  _450
REMARK  191  A    between atoms: _453  and  _455
REMARK  192  A    between atoms: _455  and  _456
REMARK  193  A    between atoms: _455  and  _458
REMARK  194  A    between atoms: _458  and  _459
REMARK  195  A    between atoms: _464  and  _466
REMARK  196  A    between atoms: _466  and  _467
REMARK  197  A    between atoms: _466  and  _469
REMARK  198  A    between atoms: _469  and  _470
REMARK  199  A    between atoms: _475  and  _476
REMARK  200  A    between atoms: _478  and  _480
REMARK  201  A    between atoms: _480  and  _481
REMARK  202  A    between atoms: _480  and  _483
REMARK  203  A    between atoms: _485  and  _487
REMARK  204  A    between atoms: _487  and  _488
REMARK  205  A    between atoms: _487  and  _490
REMARK  206  A    between atoms: _490  and  _491
REMARK  207  A    between atoms: _497  and  _499
REMARK  208  A    between atoms: _499  and  _500
REMARK  209  A    between atoms: _499  and  _502
REMARK  210  A    between atoms: _502  and  _503
REMARK  211  A    between atoms: _506  and  _508
REMARK  212  A    between atoms: _508  and  _509
REMARK  213  A    between atoms: _508  and  _511
REMARK  214  A    between atoms: _511  and  _512
REMARK  215  A    between atoms: _515  and  _517
REMARK  216  A    between atoms: _517  and  _518
REMARK  217  A    between atoms: _520  and  _522
REMARK  218  A    between atoms: _522  and  _523
REMARK  219  A    between atoms: _522  and  _525
REMARK  220  A    between atoms: _525  and  _526
REMARK  221  A    between atoms: _529  and  _531
REMARK  222  A    between atoms: _531  and  _532
REMARK  223  A    between atoms: _531  and  _534
REMARK  224  A    between atoms: _534  and  _535
REMARK  225  A    between atoms: _540  and  _541
REMARK  226  A    between atoms: _543  and  _545
REMARK  227  A    between atoms: _545  and  _546
REMARK  228  A    between atoms: _545  and  _548
REMARK  229  A    between atoms: _548  and  _549
REMARK  230  A    between atoms: _554  and  _556
REMARK  231  A    between atoms: _556  and  _557
REMARK  232  A    between atoms: _556  and  _559
REMARK  233  A    between atoms: _559  and  _560
REMARK  234  A    between atoms: _560  and  _561
REMARK  235  A    between atoms: _564  and  _566
REMARK  236  A    between atoms: _566  and  _567
REMARK  237  A    between atoms: _566  and  _569
REMARK  238  A    between atoms: _569  and  _570
REMARK  239  A    between atoms: _575  and  _576
REMARK  240  A    between atoms: _578  and  _580
REMARK  241  A    between atoms: _580  and  _581
REMARK  242  A    between atoms: _580  and  _583
REMARK  243  A    between atoms: _583  and  _584
REMARK                            x       y       z     vdW  Elec       q    Type
REMARK                         _______ _______ _______ _____ _____    ______ ____
ROOT
ATOM      1  O   HOH     1      24.100 -27.641   9.154  0.00  0.00    +0.000 OA
ENDROOT
TORSDOF 0
REMARK  Name = ../refined-set-2016/4zzy/4zzy_pocket.pdb
REMARK  243 active torsions:
REMARK  status: ('A' for Active; 'I' for Inactive)
REMARK    1  A    between atoms: _1  and  _3
REMARK    2  A    between atoms: _3  and  _4
REMARK    3  A    between atoms: _3  and  _6
REMARK    4  A    between atoms: _6  and  _7
REMARK    5  A    between atoms: _12  and  _13
REMARK    6  A    between atoms: _15  and  _17
REMARK    7  A    between atoms: _17  and  _18
REMARK    8  A    between atoms: _17  and  _20
REMARK    9  A    between atoms: _20  and  _21
REMARK   10  A    between atoms: _24  and  _26
REMARK   11  A    between atoms: _26  and  _27
REMARK   12  A    between atoms: _26  and  _29
REMARK   13  A    between atoms: _29  and  _30
REMARK   14  A    between atoms: _30  and  _31
REMARK   15  A    between atoms: _34  and  _36
REMARK   16  A    between atoms: _36  and  _37
REMARK   17  A    between atoms: _36  and  _39
REMARK   18  A    between atoms: _39  and  _40
REMARK   19  A    between atoms: _40  and  _41
REMARK   20  A    between atoms: _46  and  _48
REMARK   21  A    between atoms: _48  and  _49
REMARK   22  A    between atoms: _48  and  _51
REMARK   23  A    between atoms: _51  and  _52
REMARK   24  A    between atoms: _52  and  _53
REMARK   25  A    between atoms: _53  and  _54
REMARK   26  A    between atoms: _54  and  _55
REMARK   27  A    between atoms: _59  and  _61
REMARK   28  A    between atoms: _61  and  _62
REMARK   29  A    between atoms: _61  and  _64
REMARK   30  A    between atoms: _64  and  _65
REMARK   31  A    between atoms: _65  and  _66
REMARK   32  A    between atoms: _69  and  _71
REMARK   33  A    between atoms: _71  and  _72
REMARK   34  A    between atoms: _71  and  _74
REMARK   35  A    between atoms: _74  and  _75
REMARK   36  A    between atoms: _78  and  _80
REMARK   37  A    between atoms: _80  and  _81
REMARK   38  A    between atoms: _80  and  _83
REMARK   39  A    between atoms: _83  and  _84
REMARK   40  A    between atoms: _86  and  _88
REMARK   41  A    between atoms: _88  and  _89
REMARK   42  A    between atoms: _88  and  _91
REMARK   43  A    between atoms: _91  and  _92
REMARK   44  A    between atoms: _92  and  _93
REMARK   45  A    between atoms: _96  and  _98
REMARK   46  A    between atoms: _98  and  _99
REMARK   47  A    between atoms: _98  and  _101
REMARK   48  A    between atoms: _101  and  _102
REMARK   49  A    between atoms: _102  and  _103
REMARK   50  A    between atoms: _103  and  _104
REMARK   51  A    between atoms: _104  and  _105
REMARK   52  A    between atoms: _109  and  _111
REMARK   53  A    between atoms: _111  and  _112
REMARK   54  A    between atoms: _111  and  _114
REMARK   55  A    between atoms: _114  and  _115
REMARK   56  A    between atoms: _118  and  _120
REMARK   57  A    between atoms: _120  and  _121
REMARK   58  A    between atoms: _120  and  _123
REMARK   59  A    between atoms: _123  and  _124
REMARK   60  A    between atoms: _124  and  _125
REMARK   61  A    between atoms: _130  and  _132
REMARK   62  A    between atoms: _132  and  _133
REMARK   63  A    between atoms: _132  and  _135
REMARK   64  A    between atoms: _135  and  _136
REMARK   65  A    between atoms: _139  and  _141
REMARK   66  A    between atoms: _141  and  _142
REMARK   67  A    between atoms: _141  and  _144
REMARK   68  A    between atoms: _144  and  _145
REMARK   69  A    between atoms: _145  and  _146
REMARK   70  A    between atoms: _149  and  _151
REMARK   71  A    between atoms: _151  and  _152
REMARK   72  A    between atoms: _151  and  _154
REMARK   73  A    between atoms: _154  and  _155
REMARK   74  A    between atoms: _158  and  _160
REMARK   75  A    between atoms: _160  and  _161
REMARK   76  A    between atoms: _160  and  _163
REMARK   77  A    between atoms: _163  and  _164
REMARK   78  A    between atoms: _174  and  _176
REMARK   79  A    between atoms: _176  and  _177
REMARK   80  A    between atoms: _176  and  _179
REMARK   81  A    between atoms: _179  and  _180
REMARK   82  A    between atoms: _185  and  _187
REMARK   83  A    between atoms: _187  and  _188
REMARK   84  A    between atoms: _190  and  _192
REMARK   85  A    between atoms: _192  and  _193
REMARK   86  A    between atoms: _192  and  _195
REMARK   87  A    between atoms: _195  and  _196
REMARK   88  A    between atoms: _198  and  _200
REMARK   89  A    between atoms: _200  and  _201
REMARK   90  A    between atoms: _200  and  _203
REMARK   91  A    between atoms: _203  and  _204
REMARK   92  A    between atoms: _204  and  _205
REMARK   93  A    between atoms: _205  and  _206
REMARK   94  A    between atoms: _215  and  _217
REMARK   95  A    between atoms: _217  and  _218
REMARK   96  A    between atoms: _217  and  _220
REMARK   97  A    between atoms: _220  and  _221
REMARK   98  A    between atoms: _226  and  _228
REMARK   99  A    between atoms: _228  and  _229
REMARK  100  A    between atoms: _228  and  _231
REMARK  101  A    between atoms: _231  and  _232
REMARK  102  A    between atoms: _242  and  _244
REMARK  103  A    between atoms: _244  and  _245
REMARK  104  A    between atoms: _244  and  _247
REMARK  105  A    between atoms: _247  and  _248
REMARK  106  A    between atoms: _251  and  _253
REMARK  107  A    between atoms: _253  and  _254
REMARK  108  A    between atoms: _257  and  _259
REMARK  109  A    between atoms: _259  and  _260
REMARK  110  A    between atoms: _264  and  _265
REMARK  111  A    between atoms: _270  and  _272
REMARK  112  A    between atoms: _272  and  _273
REMARK  113  A    between atoms: _272  and  _275
REMARK  114  A    between atoms: _275  and  _276
REMARK  115  A    between atoms: _279  and  _281
REMARK  116  A    between atoms: _281  and  _282
REMARK  117  A    between atoms: _281  and  _284
REMARK  118  A    between atoms: _284  and  _285
REMARK  119  A    between atoms: _288  and  _290
REMARK  120  A    between atoms: _290  and  _291
REMARK  121  A    between atoms: _293  and  _295
REMARK  122  A    between atoms: _295  and  _296
REMARK  123  A    between atoms: _295  and  _298
REMARK  124  A    between atoms: _298  and  _299
REMARK  125  A    between atoms: _304  and  _305
REMARK  126  A    between atoms: _307  and  _309
REMARK  127  A    between atoms: _309  and  _310
REMARK  128  A    between atoms: _309  and  _312
REMARK  129  A    between atoms: _312  and  _313
REMARK  130  A    between atoms: _313  and  _314
REMARK  131  A    between atoms: _316  and  _318
REMARK  132  A    between atoms: _318  and  _319
REMARK  133  A    between atoms: _318  and  _321
REMARK  134  A    between atoms: _321  and  _322
REMARK  135  A    between atoms: _328  and  _330
REMARK  136  A    between atoms: _330  and  _331
REMARK  137  A    between atoms: _333  and  _335
REMARK  138  A    between atoms: _335  and  _336
REMARK  139  A    between atoms: _335  and  _338
REMARK  140  A    between atoms: _338  and  _339
REMARK  141  A    between atoms: _339  and  _340
REMARK  142  A    between atoms: _340  and  _341
REMARK  143  A    between atoms: _341  and  _342
REMARK  144  A    between atoms: _346  and  _348
REMARK  145  A    between atoms: _348  and  _349
REMARK  146  A    between atoms: _351  and  _353
REMARK  147  A    between atoms: _353  and  _354
REMARK  148  A    between atoms: _353  and  _356
REMARK  149  A    between atoms: _356  and  _357
REMARK  150  A    between atoms: _360  and  _362
REMARK  151  A    between atoms: _362  and  _363
REMARK  152  A    between atoms: _362  and  _365
REMARK  153  A    between atoms: _365  and  _366
REMARK  154  A    between atoms: _371  and  _372
REMARK  155  A    between atoms: _374  and  _376
REMARK  156  A    between atoms: _376  and  _377
REMARK  157  A    between atoms: _376  and  _379
REMARK  158  A    between atoms: _379  and  _380
REMARK  159  A    between atoms: _386  and  _388
REMARK  160  A    between atoms: _388  and  _389
REMARK  161  A    between atoms: _392  and  _394
REMARK  162  A    between atoms: _394  and  _395
REMARK  163  A    between atoms: _394  and  _397
REMARK  164  A    between atoms: _397  and  _398
REMARK  165  A    between atoms: _401  and  _403
REMARK  166  A    between atoms: _403  and  _404
REMARK  167  A    between atoms: _403  and  _406
REMARK  168  A    between atoms: _406  and  _407
REMARK  169  A    between atoms: _407  and  _408
REMARK  170  A    between atoms: _410  and  _412
REMARK  171  A    between atoms: _412  and  _413
REMARK  172  A    between atoms: _412  and  _415
REMARK  173  A    between atoms: _415  and  _416
REMARK  174  A    between atoms: _418  and  _420
REMARK  175  A    between atoms: _420  and  _421
REMARK  176  A    between atoms: _420  and  _423
REMARK  177  A    between atoms: _423  and  _424
REMARK  178  A    between atoms: _426  and  _428
REMARK  179  A    between atoms: _428  and  _429
REMARK  180  A    between atoms: _428  and  _431
REMARK  181  A    between atoms: _431  and  _432
REMARK  182  A    between atoms: _432  and  _433
REMARK  183  A    between atoms: _433  and  _434
REMARK  184  A    between atoms: _434  and  _435
REMARK  185  A    between atoms: _439  and  _441
REMARK  186  A    between atoms: _441  and  _442
REMARK  187  A    between atoms: _441  and  _444
REMARK  188  A    between atoms: _444  and  _445
REMARK  189  A    between atoms: _447  and  _449
REMARK  190  A    between atoms: _449  and  _450
REMARK  191  A    between atoms: _453  and  _455
REMARK  192  A    between atoms: _455  and  _456
REMARK  193  A    between atoms: _455  and  _458
REMARK  194  A    between atoms: _458  and  _459
REMARK  195  A    between atoms: _464  and  _466
REMARK  196  A    between atoms: _466  and  _467
REMARK  197  A    between atoms: _466  and  _469
REMARK  198  A    between atoms: _469  and  _470
REMARK  199  A    between atoms: _475  and  _476
REMARK  200  A    between atoms: _478  and  _480
REMARK  201  A    between atoms: _480  and  _481
REMARK  202  A    between atoms: _480  and  _483
REMARK  203  A    between atoms: _485  and  _487
REMARK  204  A    between atoms: _487  and  _488
REMARK  205  A    between atoms: _487  and  _490
REMARK  206  A    between atoms: _490  and  _491
REMARK  207  A    between atoms: _497  and  _499
REMARK  208  A    between atoms: _499  and  _500
REMARK  209  A    between atoms: _499  and  _502
REMARK  210  A    between atoms: _502  and  _503
REMARK  211  A    between atoms: _506  and  _508
REMARK  212  A    between atoms: _508  and  _509
REMARK  213  A    between atoms: _508  and  _511
REMARK  214  A    between atoms: _511  and  _512
REMARK  215  A    between atoms: _515  and  _517
REMARK  216  A    between atoms: _517  and  _518
REMARK  217  A    between atoms: _520  and  _522
REMARK  218  A    between atoms: _522  and  _523
REMARK  219  A    between atoms: _522  and  _525
REMARK  220  A    between atoms: _525  and  _526
REMARK  221  A    between atoms: _529  and  _531
REMARK  222  A    between atoms: _531  and  _532
REMARK  223  A    between atoms: _531  and  _534
REMARK  224  A    between atoms: _534  and  _535
REMARK  225  A    between atoms: _540  and  _541
REMARK  226  A    between atoms: _543  and  _545
REMARK  227  A    between atoms: _545  and  _546
REMARK  228  A    between atoms: _545  and  _548
REMARK  229  A    between atoms: _548  and  _549
REMARK  230  A    between atoms: _554  and  _556
REMARK  231  A    between atoms: _556  and  _557
REMARK  232  A    between atoms: _556  and  _559
REMARK  233  A    between atoms: _559  and  _560
REMARK  234  A    between atoms: _560  and  _561
REMARK  235  A    between atoms: _564  and  _566
REMARK  236  A    between atoms: _566  and  _567
REMARK  237  A    between atoms: _566  and  _569
REMARK  238  A    between atoms: _569  and  _570
REMARK  239  A    between atoms: _575  and  _576
REMARK  240  A    between atoms: _578  and  _580
REMARK  241  A    between atoms: _580  and  _581
REMARK  242  A    between atoms: _580  and  _583
REMARK  243  A    between atoms: _583  and  _584
REMARK                            x       y       z     vdW  Elec       q    Type
REMARK                         _______ _______ _______ _____ _____    ______ ____
ROOT
ATOM      1  O   HOH     1      21.659 -20.690   5.299  0.00  0.00    +0.000 OA
ENDROOT
TORSDOF 0
REMARK  Name = ../refined-set-2016/4zzy/4zzy_pocket.pdb
REMARK  243 active torsions:
REMARK  status: ('A' for Active; 'I' for Inactive)
REMARK    1  A    between atoms: _1  and  _3
REMARK    2  A    between atoms: _3  and  _4
REMARK    3  A    between atoms: _3  and  _6
REMARK    4  A    between atoms: _6  and  _7
REMARK    5  A    between atoms: _12  and  _13
REMARK    6  A    between atoms: _15  and  _17
REMARK    7  A    between atoms: _17  and  _18
REMARK    8  A    between atoms: _17  and  _20
REMARK    9  A    between atoms: _20  and  _21
REMARK   10  A    between atoms: _24  and  _26
REMARK   11  A    between atoms: _26  and  _27
REMARK   12  A    between atoms: _26  and  _29
REMARK   13  A    between atoms: _29  and  _30
REMARK   14  A    between atoms: _30  and  _31
REMARK   15  A    between atoms: _34  and  _36
REMARK   16  A    between atoms: _36  and  _37
REMARK   17  A    between atoms: _36  and  _39
REMARK   18  A    between atoms: _39  and  _40
REMARK   19  A    between atoms: _40  and  _41
REMARK   20  A    between atoms: _46  and  _48
REMARK   21  A    between atoms: _48  and  _49
REMARK   22  A    between atoms: _48  and  _51
REMARK   23  A    between atoms: _51  and  _52
REMARK   24  A    between atoms: _52  and  _53
REMARK   25  A    between atoms: _53  and  _54
REMARK   26  A    between atoms: _54  and  _55
REMARK   27  A    between atoms: _59  and  _61
REMARK   28  A    between atoms: _61  and  _62
REMARK   29  A    between atoms: _61  and  _64
REMARK   30  A    between atoms: _64  and  _65
REMARK   31  A    between atoms: _65  and  _66
REMARK   32  A    between atoms: _69  and  _71
REMARK   33  A    between atoms: _71  and  _72
REMARK   34  A    between atoms: _71  and  _74
REMARK   35  A    between atoms: _74  and  _75
REMARK   36  A    between atoms: _78  and  _80
REMARK   37  A    between atoms: _80  and  _81
REMARK   38  A    between atoms: _80  and  _83
REMARK   39  A    between atoms: _83  and  _84
REMARK   40  A    between atoms: _86  and  _88
REMARK   41  A    between atoms: _88  and  _89
REMARK   42  A    between atoms: _88  and  _91
REMARK   43  A    between atoms: _91  and  _92
REMARK   44  A    between atoms: _92  and  _93
REMARK   45  A    between atoms: _96  and  _98
REMARK   46  A    between atoms: _98  and  _99
REMARK   47  A    between atoms: _98  and  _101
REMARK   48  A    between atoms: _101  and  _102
REMARK   49  A    between atoms: _102  and  _103
REMARK   50  A    between atoms: _103  and  _104
REMARK   51  A    between atoms: _104  and  _105
REMARK   52  A    between atoms: _109  and  _111
REMARK   53  A    between atoms: _111  and  _112
REMARK   54  A    between atoms: _111  and  _114
REMARK   55  A    between atoms: _114  and  _115
REMARK   56  A    between atoms: _118  and  _120
REMARK   57  A    between atoms: _120  and  _121
REMARK   58  A    between atoms: _120  and  _123
REMARK   59  A    between atoms: _123  and  _124
REMARK   60  A    between atoms: _124  and  _125
REMARK   61  A    between atoms: _130  and  _132
REMARK   62  A    between atoms: _132  and  _133
REMARK   63  A    between atoms: _132  and  _135
REMARK   64  A    between atoms: _135  and  _136
REMARK   65  A    between atoms: _139  and  _141
REMARK   66  A    between atoms: _141  and  _142
REMARK   67  A    between atoms: _141  and  _144
REMARK   68  A    between atoms: _144  and  _145
REMARK   69  A    between atoms: _145  and  _146
REMARK   70  A    between atoms: _149  and  _151
REMARK   71  A    between atoms: _151  and  _152
REMARK   72  A    between atoms: _151  and  _154
REMARK   73  A    between atoms: _154  and  _155
REMARK   74  A    between atoms: _158  and  _160
REMARK   75  A    between atoms: _160  and  _161
REMARK   76  A    between atoms: _160  and  _163
REMARK   77  A    between atoms: _163  and  _164
REMARK   78  A    between atoms: _174  and  _176
REMARK   79  A    between atoms: _176  and  _177
REMARK   80  A    between atoms: _176  and  _179
REMARK   81  A    between atoms: _179  and  _180
REMARK   82  A    between atoms: _185  and  _187
REMARK   83  A    between atoms: _187  and  _188
REMARK   84  A    between atoms: _190  and  _192
REMARK   85  A    between atoms: _192  and  _193
REMARK   86  A    between atoms: _192  and  _195
REMARK   87  A    between atoms: _195  and  _196
REMARK   88  A    between atoms: _198  and  _200
REMARK   89  A    between atoms: _200  and  _201
REMARK   90  A    between atoms: _200  and  _203
REMARK   91  A    between atoms: _203  and  _204
REMARK   92  A    between atoms: _204  and  _205
REMARK   93  A    between atoms: _205  and  _206
REMARK   94  A    between atoms: _215  and  _217
REMARK   95  A    between atoms: _217  and  _218
REMARK   96  A    between atoms: _217  and  _220
REMARK   97  A    between atoms: _220  and  _221
REMARK   98  A    between atoms: _226  and  _228
REMARK   99  A    between atoms: _228  and  _229
REMARK  100  A    between atoms: _228  and  _231
REMARK  101  A    between atoms: _231  and  _232
REMARK  102  A    between atoms: _242  and  _244
REMARK  103  A    between atoms: _244  and  _245
REMARK  104  A    between atoms: _244  and  _247
REMARK  105  A    between atoms: _247  and  _248
REMARK  106  A    between atoms: _251  and  _253
REMARK  107  A    between atoms: _253  and  _254
REMARK  108  A    between atoms: _257  and  _259
REMARK  109  A    between atoms: _259  and  _260
REMARK  110  A    between atoms: _264  and  _265
REMARK  111  A    between atoms: _270  and  _272
REMARK  112  A    between atoms: _272  and  _273
REMARK  113  A    between atoms: _272  and  _275
REMARK  114  A    between atoms: _275  and  _276
REMARK  115  A    between atoms: _279  and  _281
REMARK  116  A    between atoms: _281  and  _282
REMARK  117  A    between atoms: _281  and  _284
REMARK  118  A    between atoms: _284  and  _285
REMARK  119  A    between atoms: _288  and  _290
REMARK  120  A    between atoms: _290  and  _291
REMARK  121  A    between atoms: _293  and  _295
REMARK  122  A    between atoms: _295  and  _296
REMARK  123  A    between atoms: _295  and  _298
REMARK  124  A    between atoms: _298  and  _299
REMARK  125  A    between atoms: _304  and  _305
REMARK  126  A    between atoms: _307  and  _309
REMARK  127  A    between atoms: _309  and  _310
REMARK  128  A    between atoms: _309  and  _312
REMARK  129  A    between atoms: _312  and  _313
REMARK  130  A    between atoms: _313  and  _314
REMARK  131  A    between atoms: _316  and  _318
REMARK  132  A    between atoms: _318  and  _319
REMARK  133  A    between atoms: _318  and  _321
REMARK  134  A    between atoms: _321  and  _322
REMARK  135  A    between atoms: _328  and  _330
REMARK  136  A    between atoms: _330  and  _331
REMARK  137  A    between atoms: _333  and  _335
REMARK  138  A    between atoms: _335  and  _336
REMARK  139  A    between atoms: _335  and  _338
REMARK  140  A    between atoms: _338  and  _339
REMARK  141  A    between atoms: _339  and  _340
REMARK  142  A    between atoms: _340  and  _341
REMARK  143  A    between atoms: _341  and  _342
REMARK  144  A    between atoms: _346  and  _348
REMARK  145  A    between atoms: _348  and  _349
REMARK  146  A    between atoms: _351  and  _353
REMARK  147  A    between atoms: _353  and  _354
REMARK  148  A    between atoms: _353  and  _356
REMARK  149  A    between atoms: _356  and  _357
REMARK  150  A    between atoms: _360  and  _362
REMARK  151  A    between atoms: _362  and  _363
REMARK  152  A    between atoms: _362  and  _365
REMARK  153  A    between atoms: _365  and  _366
REMARK  154  A    between atoms: _371  and  _372
REMARK  155  A    between atoms: _374  and  _376
REMARK  156  A    between atoms: _376  and  _377
REMARK  157  A    between atoms: _376  and  _379
REMARK  158  A    between atoms: _379  and  _380
REMARK  159  A    between atoms: _386  and  _388
REMARK  160  A    between atoms: _388  and  _389
REMARK  161  A    between atoms: _392  and  _394
REMARK  162  A    between atoms: _394  and  _395
REMARK  163  A    between atoms: _394  and  _397
REMARK  164  A    between atoms: _397  and  _398
REMARK  165  A    between atoms: _401  and  _403
REMARK  166  A    between atoms: _403  and  _404
REMARK  167  A    between atoms: _403  and  _406
REMARK  168  A    between atoms: _406  and  _407
REMARK  169  A    between atoms: _407  and  _408
REMARK  170  A    between atoms: _410  and  _412
REMARK  171  A    between atoms: _412  and  _413
REMARK  172  A    between atoms: _412  and  _415
REMARK  173  A    between atoms: _415  and  _416
REMARK  174  A    between atoms: _418  and  _420
REMARK  175  A    between atoms: _420  and  _421
REMARK  176  A    between atoms: _420  and  _423
REMARK  177  A    between atoms: _423  and  _424
REMARK  178  A    between atoms: _426  and  _428
REMARK  179  A    between atoms: _428  and  _429
REMARK  180  A    between atoms: _428  and  _431
REMARK  181  A    between atoms: _431  and  _432
REMARK  182  A    between atoms: _432  and  _433
REMARK  183  A    between atoms: _433  and  _434
REMARK  184  A    between atoms: _434  and  _435
REMARK  185  A    between atoms: _439  and  _441
REMARK  186  A    between atoms: _441  and  _442
REMARK  187  A    between atoms: _441  and  _444
REMARK  188  A    between atoms: _444  and  _445
REMARK  189  A    between atoms: _447  and  _449
REMARK  190  A    between atoms: _449  and  _450
REMARK  191  A    between atoms: _453  and  _455
REMARK  192  A    between atoms: _455  and  _456
REMARK  193  A    between atoms: _455  and  _458
REMARK  194  A    between atoms: _458  and  _459
REMARK  195  A    between atoms: _464  and  _466
REMARK  196  A    between atoms: _466  and  _467
REMARK  197  A    between atoms: _466  and  _469
REMARK  198  A    between atoms: _469  and  _470
REMARK  199  A    between atoms: _475  and  _476
REMARK  200  A    between atoms: _478  and  _480
REMARK  201  A    between atoms: _480  and  _481
REMARK  202  A    between atoms: _480  and  _483
REMARK  203  A    between atoms: _485  and  _487
REMARK  204  A    between atoms: _487  and  _488
REMARK  205  A    between atoms: _487  and  _490
REMARK  206  A    between atoms: _490  and  _491
REMARK  207  A    between atoms: _497  and  _499
REMARK  208  A    between atoms: _499  and  _500
REMARK  209  A    between atoms: _499  and  _502
REMARK  210  A    between atoms: _502  and  _503
REMARK  211  A    between atoms: _506  and  _508
REMARK  212  A    between atoms: _508  and  _509
REMARK  213  A    between atoms: _508  and  _511
REMARK  214  A    between atoms: _511  and  _512
REMARK  215  A    between atoms: _515  and  _517
REMARK  216  A    between atoms: _517  and  _518
REMARK  217  A    between atoms: _520  and  _522
REMARK  218  A    between atoms: _522  and  _523
REMARK  219  A    between atoms: _522  and  _525
REMARK  220  A    between atoms: _525  and  _526
REMARK  221  A    between atoms: _529  and  _531
REMARK  222  A    between atoms: _531  and  _532
REMARK  223  A    between atoms: _531  and  _534
REMARK  224  A    between atoms: _534  and  _535
REMARK  225  A    between atoms: _540  and  _541
REMARK  226  A    between atoms: _543  and  _545
REMARK  227  A    between atoms: _545  and  _546
REMARK  228  A    between atoms: _545  and  _548
REMARK  229  A    between atoms: _548  and  _549
REMARK  230  A    between atoms: _554  and  _556
REMARK  231  A    between atoms: _556  and  _557
REMARK  232  A    between atoms: _556  and  _559
REMARK  233  A    between atoms: _559  and  _560
REMARK  234  A    between atoms: _560  and  _561
REMARK  235  A    between atoms: _564  and  _566
REMARK  236  A    between atoms: _566  and  _567
REMARK  237  A    between atoms: _566  and  _569
REMARK  238  A    between atoms: _569  and  _570
REMARK  239  A    between atoms: _575  and  _576
REMARK  240  A    between atoms: _578  and  _580
REMARK  241  A    between atoms: _580  and  _581
REMARK  242  A    between atoms: _580  and  _583
REMARK  243  A    between atoms: _583  and  _584
REMARK                            x       y       z     vdW  Elec       q    Type
REMARK                         _______ _______ _______ _____ _____    ______ ____
ROOT
ATOM      1  O   HOH     1      34.949 -20.378   5.117  0.00  0.00    +0.000 OA
ENDROOT
TORSDOF 0
REMARK  Name = ../refined-set-2016/4zzy/4zzy_pocket.pdb
REMARK  243 active torsions:
REMARK  status: ('A' for Active; 'I' for Inactive)
REMARK    1  A    between atoms: _1  and  _3
REMARK    2  A    between atoms: _3  and  _4
REMARK    3  A    between atoms: _3  and  _6
REMARK    4  A    between atoms: _6  and  _7
REMARK    5  A    between atoms: _12  and  _13
REMARK    6  A    between atoms: _15  and  _17
REMARK    7  A    between atoms: _17  and  _18
REMARK    8  A    between atoms: _17  and  _20
REMARK    9  A    between atoms: _20  and  _21
REMARK   10  A    between atoms: _24  and  _26
REMARK   11  A    between atoms: _26  and  _27
REMARK   12  A    between atoms: _26  and  _29
REMARK   13  A    between atoms: _29  and  _30
REMARK   14  A    between atoms: _30  and  _31
REMARK   15  A    between atoms: _34  and  _36
REMARK   16  A    between atoms: _36  and  _37
REMARK   17  A    between atoms: _36  and  _39
REMARK   18  A    between atoms: _39  and  _40
REMARK   19  A    between atoms: _40  and  _41
REMARK   20  A    between atoms: _46  and  _48
REMARK   21  A    between atoms: _48  and  _49
REMARK   22  A    between atoms: _48  and  _51
REMARK   23  A    between atoms: _51  and  _52
REMARK   24  A    between atoms: _52  and  _53
REMARK   25  A    between atoms: _53  and  _54
REMARK   26  A    between atoms: _54  and  _55
REMARK   27  A    between atoms: _59  and  _61
REMARK   28  A    between atoms: _61  and  _62
REMARK   29  A    between atoms: _61  and  _64
REMARK   30  A    between atoms: _64  and  _65
REMARK   31  A    between atoms: _65  and  _66
REMARK   32  A    between atoms: _69  and  _71
REMARK   33  A    between atoms: _71  and  _72
REMARK   34  A    between atoms: _71  and  _74
REMARK   35  A    between atoms: _74  and  _75
REMARK   36  A    between atoms: _78  and  _80
REMARK   37  A    between atoms: _80  and  _81
REMARK   38  A    between atoms: _80  and  _83
REMARK   39  A    between atoms: _83  and  _84
REMARK   40  A    between atoms: _86  and  _88
REMARK   41  A    between atoms: _88  and  _89
REMARK   42  A    between atoms: _88  and  _91
REMARK   43  A    between atoms: _91  and  _92
REMARK   44  A    between atoms: _92  and  _93
REMARK   45  A    between atoms: _96  and  _98
REMARK   46  A    between atoms: _98  and  _99
REMARK   47  A    between atoms: _98  and  _101
REMARK   48  A    between atoms: _101  and  _102
REMARK   49  A    between atoms: _102  and  _103
REMARK   50  A    between atoms: _103  and  _104
REMARK   51  A    between atoms: _104  and  _105
REMARK   52  A    between atoms: _109  and  _111
REMARK   53  A    between atoms: _111  and  _112
REMARK   54  A    between atoms: _111  and  _114
REMARK   55  A    between atoms: _114  and  _115
REMARK   56  A    between atoms: _118  and  _120
REMARK   57  A    between atoms: _120  and  _121
REMARK   58  A    between atoms: _120  and  _123
REMARK   59  A    between atoms: _123  and  _124
REMARK   60  A    between atoms: _124  and  _125
REMARK   61  A    between atoms: _130  and  _132
REMARK   62  A    between atoms: _132  and  _133
REMARK   63  A    between atoms: _132  and  _135
REMARK   64  A    between atoms: _135  and  _136
REMARK   65  A    between atoms: _139  and  _141
REMARK   66  A    between atoms: _141  and  _142
REMARK   67  A    between atoms: _141  and  _144
REMARK   68  A    between atoms: _144  and  _145
REMARK   69  A    between atoms: _145  and  _146
REMARK   70  A    between atoms: _149  and  _151
REMARK   71  A    between atoms: _151  and  _152
REMARK   72  A    between atoms: _151  and  _154
REMARK   73  A    between atoms: _154  and  _155
REMARK   74  A    between atoms: _158  and  _160
REMARK   75  A    between atoms: _160  and  _161
REMARK   76  A    between atoms: _160  and  _163
REMARK   77  A    between atoms: _163  and  _164
REMARK   78  A    between atoms: _174  and  _176
REMARK   79  A    between atoms: _176  and  _177
REMARK   80  A    between atoms: _176  and  _179
REMARK   81  A    between atoms: _179  and  _180
REMARK   82  A    between atoms: _185  and  _187
REMARK   83  A    between atoms: _187  and  _188
REMARK   84  A    between atoms: _190  and  _192
REMARK   85  A    between atoms: _192  and  _193
REMARK   86  A    between atoms: _192  and  _195
REMARK   87  A    between atoms: _195  and  _196
REMARK   88  A    between atoms: _198  and  _200
REMARK   89  A    between atoms: _200  and  _201
REMARK   90  A    between atoms: _200  and  _203
REMARK   91  A    between atoms: _203  and  _204
REMARK   92  A    between atoms: _204  and  _205
REMARK   93  A    between atoms: _205  and  _206
REMARK   94  A    between atoms: _215  and  _217
REMARK   95  A    between atoms: _217  and  _218
REMARK   96  A    between atoms: _217  and  _220
REMARK   97  A    between atoms: _220  and  _221
REMARK   98  A    between atoms: _226  and  _228
REMARK   99  A    between atoms: _228  and  _229
REMARK  100  A    between atoms: _228  and  _231
REMARK  101  A    between atoms: _231  and  _232
REMARK  102  A    between atoms: _242  and  _244
REMARK  103  A    between atoms: _244  and  _245
REMARK  104  A    between atoms: _244  and  _247
REMARK  105  A    between atoms: _247  and  _248
REMARK  106  A    between atoms: _251  and  _253
REMARK  107  A    between atoms: _253  and  _254
REMARK  108  A    between atoms: _257  and  _259
REMARK  109  A    between atoms: _259  and  _260
REMARK  110  A    between atoms: _264  and  _265
REMARK  111  A    between atoms: _270  and  _272
REMARK  112  A    between atoms: _272  and  _273
REMARK  113  A    between atoms: _272  and  _275
REMARK  114  A    between atoms: _275  and  _276
REMARK  115  A    between atoms: _279  and  _281
REMARK  116  A    between atoms: _281  and  _282
REMARK  117  A    between atoms: _281  and  _284
REMARK  118  A    between atoms: _284  and  _285
REMARK  119  A    between atoms: _288  and  _290
REMARK  120  A    between atoms: _290  and  _291
REMARK  121  A    between atoms: _293  and  _295
REMARK  122  A    between atoms: _295  and  _296
REMARK  123  A    between atoms: _295  and  _298
REMARK  124  A    between atoms: _298  and  _299
REMARK  125  A    between atoms: _304  and  _305
REMARK  126  A    between atoms: _307  and  _309
REMARK  127  A    between atoms: _309  and  _310
REMARK  128  A    between atoms: _309  and  _312
REMARK  129  A    between atoms: _312  and  _313
REMARK  130  A    between atoms: _313  and  _314
REMARK  131  A    between atoms: _316  and  _318
REMARK  132  A    between atoms: _318  and  _319
REMARK  133  A    between atoms: _318  and  _321
REMARK  134  A    between atoms: _321  and  _322
REMARK  135  A    between atoms: _328  and  _330
REMARK  136  A    between atoms: _330  and  _331
REMARK  137  A    between atoms: _333  and  _335
REMARK  138  A    between atoms: _335  and  _336
REMARK  139  A    between atoms: _335  and  _338
REMARK  140  A    between atoms: _338  and  _339
REMARK  141  A    between atoms: _339  and  _340
REMARK  142  A    between atoms: _340  and  _341
REMARK  143  A    between atoms: _341  and  _342
REMARK  144  A    between atoms: _346  and  _348
REMARK  145  A    between atoms: _348  and  _349
REMARK  146  A    between atoms: _351  and  _353
REMARK  147  A    between atoms: _353  and  _354
REMARK  148  A    between atoms: _353  and  _356
REMARK  149  A    between atoms: _356  and  _357
REMARK  150  A    between atoms: _360  and  _362
REMARK  151  A    between atoms: _362  and  _363
REMARK  152  A    between atoms: _362  and  _365
REMARK  153  A    between atoms: _365  and  _366
REMARK  154  A    between atoms: _371  and  _372
REMARK  155  A    between atoms: _374  and  _376
REMARK  156  A    between atoms: _376  and  _377
REMARK  157  A    between atoms: _376  and  _379
REMARK  158  A    between atoms: _379  and  _380
REMARK  159  A    between atoms: _386  and  _388
REMARK  160  A    between atoms: _388  and  _389
REMARK  161  A    between atoms: _392  and  _394
REMARK  162  A    between atoms: _394  and  _395
REMARK  163  A    between atoms: _394  and  _397
REMARK  164  A    between atoms: _397  and  _398
REMARK  165  A    between atoms: _401  and  _403
REMARK  166  A    between atoms: _403  and  _404
REMARK  167  A    between atoms: _403  and  _406
REMARK  168  A    between atoms: _406  and  _407
REMARK  169  A    between atoms: _407  and  _408
REMARK  170  A    between atoms: _410  and  _412
REMARK  171  A    between atoms: _412  and  _413
REMARK  172  A    between atoms: _412  and  _415
REMARK  173  A    between atoms: _415  and  _416
REMARK  174  A    between atoms: _418  and  _420
REMARK  175  A    between atoms: _420  and  _421
REMARK  176  A    between atoms: _420  and  _423
REMARK  177  A    between atoms: _423  and  _424
REMARK  178  A    between atoms: _426  and  _428
REMARK  179  A    between atoms: _428  and  _429
REMARK  180  A    between atoms: _428  and  _431
REMARK  181  A    between atoms: _431  and  _432
REMARK  182  A    between atoms: _432  and  _433
REMARK  183  A    between atoms: _433  and  _434
REMARK  184  A    between atoms: _434  and  _435
REMARK  185  A    between atoms: _439  and  _441
REMARK  186  A    between atoms: _441  and  _442
REMARK  187  A    between atoms: _441  and  _444
REMARK  188  A    between atoms: _444  and  _445
REMARK  189  A    between atoms: _447  and  _449
REMARK  190  A    between atoms: _449  and  _450
REMARK  191  A    between atoms: _453  and  _455
REMARK  192  A    between atoms: _455  and  _456
REMARK  193  A    between atoms: _455  and  _458
REMARK  194  A    between atoms: _458  and  _459
REMARK  195  A    between atoms: _464  and  _466
REMARK  196  A    between atoms: _466  and  _467
REMARK  197  A    between atoms: _466  and  _469
REMARK  198  A    between atoms: _469  and  _470
REMARK  199  A    between atoms: _475  and  _476
REMARK  200  A    between atoms: _478  and  _480
REMARK  201  A    between atoms: _480  and  _481
REMARK  202  A    between atoms: _480  and  _483
REMARK  203  A    between atoms: _485  and  _487
REMARK  204  A    between atoms: _487  and  _488
REMARK  205  A    between atoms: _487  and  _490
REMARK  206  A    between atoms: _490  and  _491
REMARK  207  A    between atoms: _497  and  _499
REMARK  208  A    between atoms: _499  and  _500
REMARK  209  A    between atoms: _499  and  _502
REMARK  210  A    between atoms: _502  and  _503
REMARK  211  A    between atoms: _506  and  _508
REMARK  212  A    between atoms: _508  and  _509
REMARK  213  A    between atoms: _508  and  _511
REMARK  214  A    between atoms: _511  and  _512
REMARK  215  A    between atoms: _515  and  _517
REMARK  216  A    between atoms: _517  and  _518
REMARK  217  A    between atoms: _520  and  _522
REMARK  218  A    between atoms: _522  and  _523
REMARK  219  A    between atoms: _522  and  _525
REMARK  220  A    between atoms: _525  and  _526
REMARK  221  A    between atoms: _529  and  _531
REMARK  222  A    between atoms: _531  and  _532
REMARK  223  A    between atoms: _531  and  _534
REMARK  224  A    between atoms: _534  and  _535
REMARK  225  A    between atoms: _540  and  _541
REMARK  226  A    between atoms: _543  and  _545
REMARK  227  A    between atoms: _545  and  _546
REMARK  228  A    between atoms: _545  and  _548
REMARK  229  A    between atoms: _548  and  _549
REMARK  230  A    between atoms: _554  and  _556
REMARK  231  A    between atoms: _556  and  _557
REMARK  232  A    between atoms: _556  and  _559
REMARK  233  A    between atoms: _559  and  _560
REMARK  234  A    between atoms: _560  and  _561
REMARK  235  A    between atoms: _564  and  _566
REMARK  236  A    between atoms: _566  and  _567
REMARK  237  A    between atoms: _566  and  _569
REMARK  238  A    between atoms: _569  and  _570
REMARK  239  A    between atoms: _575  and  _576
REMARK  240  A    between atoms: _578  and  _580
REMARK  241  A    between atoms: _580  and  _581
REMARK  242  A    between atoms: _580  and  _583
REMARK  243  A    between atoms: _583  and  _584
REMARK                            x       y       z     vdW  Elec       q    Type
REMARK                         _______ _______ _______ _____ _____    ______ ____
ROOT
ATOM      1  O   HOH     1      31.233 -27.197   1.541  0.00  0.00    +0.000 OA
ENDROOT
TORSDOF 0
REMARK  Name = ../refined-set-2016/4zzy/4zzy_pocket.pdb
REMARK  243 active torsions:
REMARK  status: ('A' for Active; 'I' for Inactive)
REMARK    1  A    between atoms: _1  and  _3
REMARK    2  A    between atoms: _3  and  _4
REMARK    3  A    between atoms: _3  and  _6
REMARK    4  A    between atoms: _6  and  _7
REMARK    5  A    between atoms: _12  and  _13
REMARK    6  A    between atoms: _15  and  _17
REMARK    7  A    between atoms: _17  and  _18
REMARK    8  A    between atoms: _17  and  _20
REMARK    9  A    between atoms: _20  and  _21
REMARK   10  A    between atoms: _24  and  _26
REMARK   11  A    between atoms: _26  and  _27
REMARK   12  A    between atoms: _26  and  _29
REMARK   13  A    between atoms: _29  and  _30
REMARK   14  A    between atoms: _30  and  _31
REMARK   15  A    between atoms: _34  and  _36
REMARK   16  A    between atoms: _36  and  _37
REMARK   17  A    between atoms: _36  and  _39
REMARK   18  A    between atoms: _39  and  _40
REMARK   19  A    between atoms: _40  and  _41
REMARK   20  A    between atoms: _46  and  _48
REMARK   21  A    between atoms: _48  and  _49
REMARK   22  A    between atoms: _48  and  _51
REMARK   23  A    between atoms: _51  and  _52
REMARK   24  A    between atoms: _52  and  _53
REMARK   25  A    between atoms: _53  and  _54
REMARK   26  A    between atoms: _54  and  _55
REMARK   27  A    between atoms: _59  and  _61
REMARK   28  A    between atoms: _61  and  _62
REMARK   29  A    between atoms: _61  and  _64
REMARK   30  A    between atoms: _64  and  _65
REMARK   31  A    between atoms: _65  and  _66
REMARK   32  A    between atoms: _69  and  _71
REMARK   33  A    between atoms: _71  and  _72
REMARK   34  A    between atoms: _71  and  _74
REMARK   35  A    between atoms: _74  and  _75
REMARK   36  A    between atoms: _78  and  _80
REMARK   37  A    between atoms: _80  and  _81
REMARK   38  A    between atoms: _80  and  _83
REMARK   39  A    between atoms: _83  and  _84
REMARK   40  A    between atoms: _86  and  _88
REMARK   41  A    between atoms: _88  and  _89
REMARK   42  A    between atoms: _88  and  _91
REMARK   43  A    between atoms: _91  and  _92
REMARK   44  A    between atoms: _92  and  _93
REMARK   45  A    between atoms: _96  and  _98
REMARK   46  A    between atoms: _98  and  _99
REMARK   47  A    between atoms: _98  and  _101
REMARK   48  A    between atoms: _101  and  _102
REMARK   49  A    between atoms: _102  and  _103
REMARK   50  A    between atoms: _103  and  _104
REMARK   51  A    between atoms: _104  and  _105
REMARK   52  A    between atoms: _109  and  _111
REMARK   53  A    between atoms: _111  and  _112
REMARK   54  A    between atoms: _111  and  _114
REMARK   55  A    between atoms: _114  and  _115
REMARK   56  A    between atoms: _118  and  _120
REMARK   57  A    between atoms: _120  and  _121
REMARK   58  A    between atoms: _120  and  _123
REMARK   59  A    between atoms: _123  and  _124
REMARK   60  A    between atoms: _124  and  _125
REMARK   61  A    between atoms: _130  and  _132
REMARK   62  A    between atoms: _132  and  _133
REMARK   63  A    between atoms: _132  and  _135
REMARK   64  A    between atoms: _135  and  _136
REMARK   65  A    between atoms: _139  and  _141
REMARK   66  A    between atoms: _141  and  _142
REMARK   67  A    between atoms: _141  and  _144
REMARK   68  A    between atoms: _144  and  _145
REMARK   69  A    between atoms: _145  and  _146
REMARK   70  A    between atoms: _149  and  _151
REMARK   71  A    between atoms: _151  and  _152
REMARK   72  A    between atoms: _151  and  _154
REMARK   73  A    between atoms: _154  and  _155
REMARK   74  A    between atoms: _158  and  _160
REMARK   75  A    between atoms: _160  and  _161
REMARK   76  A    between atoms: _160  and  _163
REMARK   77  A    between atoms: _163  and  _164
REMARK   78  A    between atoms: _174  and  _176
REMARK   79  A    between atoms: _176  and  _177
REMARK   80  A    between atoms: _176  and  _179
REMARK   81  A    between atoms: _179  and  _180
REMARK   82  A    between atoms: _185  and  _187
REMARK   83  A    between atoms: _187  and  _188
REMARK   84  A    between atoms: _190  and  _192
REMARK   85  A    between atoms: _192  and  _193
REMARK   86  A    between atoms: _192  and  _195
REMARK   87  A    between atoms: _195  and  _196
REMARK   88  A    between atoms: _198  and  _200
REMARK   89  A    between atoms: _200  and  _201
REMARK   90  A    between atoms: _200  and  _203
REMARK   91  A    between atoms: _203  and  _204
REMARK   92  A    between atoms: _204  and  _205
REMARK   93  A    between atoms: _205  and  _206
REMARK   94  A    between atoms: _215  and  _217
REMARK   95  A    between atoms: _217  and  _218
REMARK   96  A    between atoms: _217  and  _220
REMARK   97  A    between atoms: _220  and  _221
REMARK   98  A    between atoms: _226  and  _228
REMARK   99  A    between atoms: _228  and  _229
REMARK  100  A    between atoms: _228  and  _231
REMARK  101  A    between atoms: _231  and  _232
REMARK  102  A    between atoms: _242  and  _244
REMARK  103  A    between atoms: _244  and  _245
REMARK  104  A    between atoms: _244  and  _247
REMARK  105  A    between atoms: _247  and  _248
REMARK  106  A    between atoms: _251  and  _253
REMARK  107  A    between atoms: _253  and  _254
REMARK  108  A    between atoms: _257  and  _259
REMARK  109  A    between atoms: _259  and  _260
REMARK  110  A    between atoms: _264  and  _265
REMARK  111  A    between atoms: _270  and  _272
REMARK  112  A    between atoms: _272  and  _273
REMARK  113  A    between atoms: _272  and  _275
REMARK  114  A    between atoms: _275  and  _276
REMARK  115  A    between atoms: _279  and  _281
REMARK  116  A    between atoms: _281  and  _282
REMARK  117  A    between atoms: _281  and  _284
REMARK  118  A    between atoms: _284  and  _285
REMARK  119  A    between atoms: _288  and  _290
REMARK  120  A    between atoms: _290  and  _291
REMARK  121  A    between atoms: _293  and  _295
REMARK  122  A    between atoms: _295  and  _296
REMARK  123  A    between atoms: _295  and  _298
REMARK  124  A    between atoms: _298  and  _299
REMARK  125  A    between atoms: _304  and  _305
REMARK  126  A    between atoms: _307  and  _309
REMARK  127  A    between atoms: _309  and  _310
REMARK  128  A    between atoms: _309  and  _312
REMARK  129  A    between atoms: _312  and  _313
REMARK  130  A    between atoms: _313  and  _314
REMARK  131  A    between atoms: _316  and  _318
REMARK  132  A    between atoms: _318  and  _319
REMARK  133  A    between atoms: _318  and  _321
REMARK  134  A    between atoms: _321  and  _322
REMARK  135  A    between atoms: _328  and  _330
REMARK  136  A    between atoms: _330  and  _331
REMARK  137  A    between atoms: _333  and  _335
REMARK  138  A    between atoms: _335  and  _336
REMARK  139  A    between atoms: _335  and  _338
REMARK  140  A    between atoms: _338  and  _339
REMARK  141  A    between atoms: _339  and  _340
REMARK  142  A    between atoms: _340  and  _341
REMARK  143  A    between atoms: _341  and  _342
REMARK  144  A    between atoms: _346  and  _348
REMARK  145  A    between atoms: _348  and  _349
REMARK  146  A    between atoms: _351  and  _353
REMARK  147  A    between atoms: _353  and  _354
REMARK  148  A    between atoms: _353  and  _356
REMARK  149  A    between atoms: _356  and  _357
REMARK  150  A    between atoms: _360  and  _362
REMARK  151  A    between atoms: _362  and  _363
REMARK  152  A    between atoms: _362  and  _365
REMARK  153  A    between atoms: _365  and  _366
REMARK  154  A    between atoms: _371  and  _372
REMARK  155  A    between atoms: _374  and  _376
REMARK  156  A    between atoms: _376  and  _377
REMARK  157  A    between atoms: _376  and  _379
REMARK  158  A    between atoms: _379  and  _380
REMARK  159  A    between atoms: _386  and  _388
REMARK  160  A    between atoms: _388  and  _389
REMARK  161  A    between atoms: _392  and  _394
REMARK  162  A    between atoms: _394  and  _395
REMARK  163  A    between atoms: _394  and  _397
REMARK  164  A    between atoms: _397  and  _398
REMARK  165  A    between atoms: _401  and  _403
REMARK  166  A    between atoms: _403  and  _404
REMARK  167  A    between atoms: _403  and  _406
REMARK  168  A    between atoms: _406  and  _407
REMARK  169  A    between atoms: _407  and  _408
REMARK  170  A    between atoms: _410  and  _412
REMARK  171  A    between atoms: _412  and  _413
REMARK  172  A    between atoms: _412  and  _415
REMARK  173  A    between atoms: _415  and  _416
REMARK  174  A    between atoms: _418  and  _420
REMARK  175  A    between atoms: _420  and  _421
REMARK  176  A    between atoms: _420  and  _423
REMARK  177  A    between atoms: _423  and  _424
REMARK  178  A    between atoms: _426  and  _428
REMARK  179  A    between atoms: _428  and  _429
REMARK  180  A    between atoms: _428  and  _431
REMARK  181  A    between atoms: _431  and  _432
REMARK  182  A    between atoms: _432  and  _433
REMARK  183  A    between atoms: _433  and  _434
REMARK  184  A    between atoms: _434  and  _435
REMARK  185  A    between atoms: _439  and  _441
REMARK  186  A    between atoms: _441  and  _442
REMARK  187  A    between atoms: _441  and  _444
REMARK  188  A    between atoms: _444  and  _445
REMARK  189  A    between atoms: _447  and  _449
REMARK  190  A    between atoms: _449  and  _450
REMARK  191  A    between atoms: _453  and  _455
REMARK  192  A    between atoms: _455  and  _456
REMARK  193  A    between atoms: _455  and  _458
REMARK  194  A    between atoms: _458  and  _459
REMARK  195  A    between atoms: _464  and  _466
REMARK  196  A    between atoms: _466  and  _467
REMARK  197  A    between atoms: _466  and  _469
REMARK  198  A    between atoms: _469  and  _470
REMARK  199  A    between atoms: _475  and  _476
REMARK  200  A    between atoms: _478  and  _480
REMARK  201  A    between atoms: _480  and  _481
REMARK  202  A    between atoms: _480  and  _483
REMARK  203  A    between atoms: _485  and  _487
REMARK  204  A    between atoms: _487  and  _488
REMARK  205  A    between atoms: _487  and  _490
REMARK  206  A    between atoms: _490  and  _491
REMARK  207  A    between atoms: _497  and  _499
REMARK  208  A    between atoms: _499  and  _500
REMARK  209  A    between atoms: _499  and  _502
REMARK  210  A    between atoms: _502  and  _503
REMARK  211  A    between atoms: _506  and  _508
REMARK  212  A    between atoms: _508  and  _509
REMARK  213  A    between atoms: _508  and  _511
REMARK  214  A    between atoms: _511  and  _512
REMARK  215  A    between atoms: _515  and  _517
REMARK  216  A    between atoms: _517  and  _518
REMARK  217  A    between atoms: _520  and  _522
REMARK  218  A    between atoms: _522  and  _523
REMARK  219  A    between atoms: _522  and  _525
REMARK  220  A    between atoms: _525  and  _526
REMARK  221  A    between atoms: _529  and  _531
REMARK  222  A    between atoms: _531  and  _532
REMARK  223  A    between atoms: _531  and  _534
REMARK  224  A    between atoms: _534  and  _535
REMARK  225  A    between atoms: _540  and  _541
REMARK  226  A    between atoms: _543  and  _545
REMARK  227  A    between atoms: _545  and  _546
REMARK  228  A    between atoms: _545  and  _548
REMARK  229  A    between atoms: _548  and  _549
REMARK  230  A    between atoms: _554  and  _556
REMARK  231  A    between atoms: _556  and  _557
REMARK  232  A    between atoms: _556  and  _559
REMARK  233  A    between atoms: _559  and  _560
REMARK  234  A    between atoms: _560  and  _561
REMARK  235  A    between atoms: _564  and  _566
REMARK  236  A    between atoms: _566  and  _567
REMARK  237  A    between atoms: _566  and  _569
REMARK  238  A    between atoms: _569  and  _570
REMARK  239  A    between atoms: _575  and  _576
REMARK  240  A    between atoms: _578  and  _580
REMARK  241  A    between atoms: _580  and  _581
REMARK  242  A    between atoms: _580  and  _583
REMARK  243  A    between atoms: _583  and  _584
REMARK                            x       y       z     vdW  Elec       q    Type
REMARK                         _______ _______ _______ _____ _____    ______ ____
ROOT
ATOM      1  O   HOH     1      34.515 -26.628   7.280  0.00  0.00    +0.000 OA
ENDROOT
TORSDOF 0
REMARK  Name = ../refined-set-2016/4zzy/4zzy_pocket.pdb
REMARK  243 active torsions:
REMARK  status: ('A' for Active; 'I' for Inactive)
REMARK    1  A    between atoms: _1  and  _3
REMARK    2  A    between atoms: _3  and  _4
REMARK    3  A    between atoms: _3  and  _6
REMARK    4  A    between atoms: _6  and  _7
REMARK    5  A    between atoms: _12  and  _13
REMARK    6  A    between atoms: _15  and  _17
REMARK    7  A    between atoms: _17  and  _18
REMARK    8  A    between atoms: _17  and  _20
REMARK    9  A    between atoms: _20  and  _21
REMARK   10  A    between atoms: _24  and  _26
REMARK   11  A    between atoms: _26  and  _27
REMARK   12  A    between atoms: _26  and  _29
REMARK   13  A    between atoms: _29  and  _30
REMARK   14  A    between atoms: _30  and  _31
REMARK   15  A    between atoms: _34  and  _36
REMARK   16  A    between atoms: _36  and  _37
REMARK   17  A    between atoms: _36  and  _39
REMARK   18  A    between atoms: _39  and  _40
REMARK   19  A    between atoms: _40  and  _41
REMARK   20  A    between atoms: _46  and  _48
REMARK   21  A    between atoms: _48  and  _49
REMARK   22  A    between atoms: _48  and  _51
REMARK   23  A    between atoms: _51  and  _52
REMARK   24  A    between atoms: _52  and  _53
REMARK   25  A    between atoms: _53  and  _54
REMARK   26  A    between atoms: _54  and  _55
REMARK   27  A    between atoms: _59  and  _61
REMARK   28  A    between atoms: _61  and  _62
REMARK   29  A    between atoms: _61  and  _64
REMARK   30  A    between atoms: _64  and  _65
REMARK   31  A    between atoms: _65  and  _66
REMARK   32  A    between atoms: _69  and  _71
REMARK   33  A    between atoms: _71  and  _72
REMARK   34  A    between atoms: _71  and  _74
REMARK   35  A    between atoms: _74  and  _75
REMARK   36  A    between atoms: _78  and  _80
REMARK   37  A    between atoms: _80  and  _81
REMARK   38  A    between atoms: _80  and  _83
REMARK   39  A    between atoms: _83  and  _84
REMARK   40  A    between atoms: _86  and  _88
REMARK   41  A    between atoms: _88  and  _89
REMARK   42  A    between atoms: _88  and  _91
REMARK   43  A    between atoms: _91  and  _92
REMARK   44  A    between atoms: _92  and  _93
REMARK   45  A    between atoms: _96  and  _98
REMARK   46  A    between atoms: _98  and  _99
REMARK   47  A    between atoms: _98  and  _101
REMARK   48  A    between atoms: _101  and  _102
REMARK   49  A    between atoms: _102  and  _103
REMARK   50  A    between atoms: _103  and  _104
REMARK   51  A    between atoms: _104  and  _105
REMARK   52  A    between atoms: _109  and  _111
REMARK   53  A    between atoms: _111  and  _112
REMARK   54  A    between atoms: _111  and  _114
REMARK   55  A    between atoms: _114  and  _115
REMARK   56  A    between atoms: _118  and  _120
REMARK   57  A    between atoms: _120  and  _121
REMARK   58  A    between atoms: _120  and  _123
REMARK   59  A    between atoms: _123  and  _124
REMARK   60  A    between atoms: _124  and  _125
REMARK   61  A    between atoms: _130  and  _132
REMARK   62  A    between atoms: _132  and  _133
REMARK   63  A    between atoms: _132  and  _135
REMARK   64  A    between atoms: _135  and  _136
REMARK   65  A    between atoms: _139  and  _141
REMARK   66  A    between atoms: _141  and  _142
REMARK   67  A    between atoms: _141  and  _144
REMARK   68  A    between atoms: _144  and  _145
REMARK   69  A    between atoms: _145  and  _146
REMARK   70  A    between atoms: _149  and  _151
REMARK   71  A    between atoms: _151  and  _152
REMARK   72  A    between atoms: _151  and  _154
REMARK   73  A    between atoms: _154  and  _155
REMARK   74  A    between atoms: _158  and  _160
REMARK   75  A    between atoms: _160  and  _161
REMARK   76  A    between atoms: _160  and  _163
REMARK   77  A    between atoms: _163  and  _164
REMARK   78  A    between atoms: _174  and  _176
REMARK   79  A    between atoms: _176  and  _177
REMARK   80  A    between atoms: _176  and  _179
REMARK   81  A    between atoms: _179  and  _180
REMARK   82  A    between atoms: _185  and  _187
REMARK   83  A    between atoms: _187  and  _188
REMARK   84  A    between atoms: _190  and  _192
REMARK   85  A    between atoms: _192  and  _193
REMARK   86  A    between atoms: _192  and  _195
REMARK   87  A    between atoms: _195  and  _196
REMARK   88  A    between atoms: _198  and  _200
REMARK   89  A    between atoms: _200  and  _201
REMARK   90  A    between atoms: _200  and  _203
REMARK   91  A    between atoms: _203  and  _204
REMARK   92  A    between atoms: _204  and  _205
REMARK   93  A    between atoms: _205  and  _206
REMARK   94  A    between atoms: _215  and  _217
REMARK   95  A    between atoms: _217  and  _218
REMARK   96  A    between atoms: _217  and  _220
REMARK   97  A    between atoms: _220  and  _221
REMARK   98  A    between atoms: _226  and  _228
REMARK   99  A    between atoms: _228  and  _229
REMARK  100  A    between atoms: _228  and  _231
REMARK  101  A    between atoms: _231  and  _232
REMARK  102  A    between atoms: _242  and  _244
REMARK  103  A    between atoms: _244  and  _245
REMARK  104  A    between atoms: _244  and  _247
REMARK  105  A    between atoms: _247  and  _248
REMARK  106  A    between atoms: _251  and  _253
REMARK  107  A    between atoms: _253  and  _254
REMARK  108  A    between atoms: _257  and  _259
REMARK  109  A    between atoms: _259  and  _260
REMARK  110  A    between atoms: _264  and  _265
REMARK  111  A    between atoms: _270  and  _272
REMARK  112  A    between atoms: _272  and  _273
REMARK  113  A    between atoms: _272  and  _275
REMARK  114  A    between atoms: _275  and  _276
REMARK  115  A    between atoms: _279  and  _281
REMARK  116  A    between atoms: _281  and  _282
REMARK  117  A    between atoms: _281  and  _284
REMARK  118  A    between atoms: _284  and  _285
REMARK  119  A    between atoms: _288  and  _290
REMARK  120  A    between atoms: _290  and  _291
REMARK  121  A    between atoms: _293  and  _295
REMARK  122  A    between atoms: _295  and  _296
REMARK  123  A    between atoms: _295  and  _298
REMARK  124  A    between atoms: _298  and  _299
REMARK  125  A    between atoms: _304  and  _305
REMARK  126  A    between atoms: _307  and  _309
REMARK  127  A    between atoms: _309  and  _310
REMARK  128  A    between atoms: _309  and  _312
REMARK  129  A    between atoms: _312  and  _313
REMARK  130  A    between atoms: _313  and  _314
REMARK  131  A    between atoms: _316  and  _318
REMARK  132  A    between atoms: _318  and  _319
REMARK  133  A    between atoms: _318  and  _321
REMARK  134  A    between atoms: _321  and  _322
REMARK  135  A    between atoms: _328  and  _330
REMARK  136  A    between atoms: _330  and  _331
REMARK  137  A    between atoms: _333  and  _335
REMARK  138  A    between atoms: _335  and  _336
REMARK  139  A    between atoms: _335  and  _338
REMARK  140  A    between atoms: _338  and  _339
REMARK  141  A    between atoms: _339  and  _340
REMARK  142  A    between atoms: _340  and  _341
REMARK  143  A    between atoms: _341  and  _342
REMARK  144  A    between atoms: _346  and  _348
REMARK  145  A    between atoms: _348  and  _349
REMARK  146  A    between atoms: _351  and  _353
REMARK  147  A    between atoms: _353  and  _354
REMARK  148  A    between atoms: _353  and  _356
REMARK  149  A    between atoms: _356  and  _357
REMARK  150  A    between atoms: _360  and  _362
REMARK  151  A    between atoms: _362  and  _363
REMARK  152  A    between atoms: _362  and  _365
REMARK  153  A    between atoms: _365  and  _366
REMARK  154  A    between atoms: _371  and  _372
REMARK  155  A    between atoms: _374  and  _376
REMARK  156  A    between atoms: _376  and  _377
REMARK  157  A    between atoms: _376  and  _379
REMARK  158  A    between atoms: _379  and  _380
REMARK  159  A    between atoms: _386  and  _388
REMARK  160  A    between atoms: _388  and  _389
REMARK  161  A    between atoms: _392  and  _394
REMARK  162  A    between atoms: _394  and  _395
REMARK  163  A    between atoms: _394  and  _397
REMARK  164  A    between atoms: _397  and  _398
REMARK  165  A    between atoms: _401  and  _403
REMARK  166  A    between atoms: _403  and  _404
REMARK  167  A    between atoms: _403  and  _406
REMARK  168  A    between atoms: _406  and  _407
REMARK  169  A    between atoms: _407  and  _408
REMARK  170  A    between atoms: _410  and  _412
REMARK  171  A    between atoms: _412  and  _413
REMARK  172  A    between atoms: _412  and  _415
REMARK  173  A    between atoms: _415  and  _416
REMARK  174  A    between atoms: _418  and  _420
REMARK  175  A    between atoms: _420  and  _421
REMARK  176  A    between atoms: _420  and  _423
REMARK  177  A    between atoms: _423  and  _424
REMARK  178  A    between atoms: _426  and  _428
REMARK  179  A    between atoms: _428  and  _429
REMARK  180  A    between atoms: _428  and  _431
REMARK  181  A    between atoms: _431  and  _432
REMARK  182  A    between atoms: _432  and  _433
REMARK  183  A    between atoms: _433  and  _434
REMARK  184  A    between atoms: _434  and  _435
REMARK  185  A    between atoms: _439  and  _441
REMARK  186  A    between atoms: _441  and  _442
REMARK  187  A    between atoms: _441  and  _444
REMARK  188  A    between atoms: _444  and  _445
REMARK  189  A    between atoms: _447  and  _449
REMARK  190  A    between atoms: _449  and  _450
REMARK  191  A    between atoms: _453  and  _455
REMARK  192  A    between atoms: _455  and  _456
REMARK  193  A    between atoms: _455  and  _458
REMARK  194  A    between atoms: _458  and  _459
REMARK  195  A    between atoms: _464  and  _466
REMARK  196  A    between atoms: _466  and  _467
REMARK  197  A    between atoms: _466  and  _469
REMARK  198  A    between atoms: _469  and  _470
REMARK  199  A    between atoms: _475  and  _476
REMARK  200  A    between atoms: _478  and  _480
REMARK  201  A    between atoms: _480  and  _481
REMARK  202  A    between atoms: _480  and  _483
REMARK  203  A    between atoms: _485  and  _487
REMARK  204  A    between atoms: _487  and  _488
REMARK  205  A    between atoms: _487  and  _490
REMARK  206  A    between atoms: _490  and  _491
REMARK  207  A    between atoms: _497  and  _499
REMARK  208  A    between atoms: _499  and  _500
REMARK  209  A    between atoms: _499  and  _502
REMARK  210  A    between atoms: _502  and  _503
REMARK  211  A    between atoms: _506  and  _508
REMARK  212  A    between atoms: _508  and  _509
REMARK  213  A    between atoms: _508  and  _511
REMARK  214  A    between atoms: _511  and  _512
REMARK  215  A    between atoms: _515  and  _517
REMARK  216  A    between atoms: _517  and  _518
REMARK  217  A    between atoms: _520  and  _522
REMARK  218  A    between atoms: _522  and  _523
REMARK  219  A    between atoms: _522  and  _525
REMARK  220  A    between atoms: _525  and  _526
REMARK  221  A    between atoms: _529  and  _531
REMARK  222  A    between atoms: _531  and  _532
REMARK  223  A    between atoms: _531  and  _534
REMARK  224  A    between atoms: _534  and  _535
REMARK  225  A    between atoms: _540  and  _541
REMARK  226  A    between atoms: _543  and  _545
REMARK  227  A    between atoms: _545  and  _546
REMARK  228  A    between atoms: _545  and  _548
REMARK  229  A    between atoms: _548  and  _549
REMARK  230  A    between atoms: _554  and  _556
REMARK  231  A    between atoms: _556  and  _557
REMARK  232  A    between atoms: _556  and  _559
REMARK  233  A    between atoms: _559  and  _560
REMARK  234  A    between atoms: _560  and  _561
REMARK  235  A    between atoms: _564  and  _566
REMARK  236  A    between atoms: _566  and  _567
REMARK  237  A    between atoms: _566  and  _569
REMARK  238  A    between atoms: _569  and  _570
REMARK  239  A    between atoms: _575  and  _576
REMARK  240  A    between atoms: _578  and  _580
REMARK  241  A    between atoms: _580  and  _581
REMARK  242  A    between atoms: _580  and  _583
REMARK  243  A    between atoms: _583  and  _584
REMARK                            x       y       z     vdW  Elec       q    Type
REMARK                         _______ _______ _______ _____ _____    ______ ____
ROOT
ATOM      1  O   HOH     1      27.145 -26.547   8.863  0.00  0.00    +0.000 OA
ENDROOT
TORSDOF 0
