REMARK  Name = ../refined-set-2016/2q38/2q38_pocket.pdb
REMARK  149 active torsions:
REMARK  status: ('A' for Active; 'I' for Inactive)
REMARK    1  A    between atoms: _1  and  _3
REMARK    2  A    between atoms: _3  and  _4
REMARK    3  A    between atoms: _3  and  _6
REMARK    4  A    between atoms: _6  and  _7
REMARK    5  A    between atoms: _17  and  _19
REMARK    6  A    between atoms: _19  and  _20
REMARK    7  A    between atoms: _19  and  _22
REMARK    8  A    between atoms: _22  and  _23
REMARK    9  A    between atoms: _28  and  _29
REMARK   10  A    between atoms: _31  and  _33
REMARK   11  A    between atoms: _33  and  _34
REMARK   12  A    between atoms: _33  and  _36
REMARK   13  A    between atoms: _36  and  _37
REMARK   14  A    between atoms: _40  and  _41
REMARK   15  A    between atoms: _46  and  _48
REMARK   16  A    between atoms: _48  and  _49
REMARK   17  A    between atoms: _48  and  _51
REMARK   18  A    between atoms: _51  and  _52
REMARK   19  A    between atoms: _57  and  _59
REMARK   20  A    between atoms: _59  and  _60
REMARK   21  A    between atoms: _59  and  _62
REMARK   22  A    between atoms: _62  and  _63
REMARK   23  A    between atoms: _68  and  _70
REMARK   24  A    between atoms: _70  and  _71
REMARK   25  A    between atoms: _74  and  _76
REMARK   26  A    between atoms: _76  and  _77
REMARK   27  A    between atoms: _76  and  _79
REMARK   28  A    between atoms: _79  and  _80
REMARK   29  A    between atoms: _85  and  _87
REMARK   30  A    between atoms: _87  and  _88
REMARK   31  A    between atoms: _87  and  _90
REMARK   32  A    between atoms: _90  and  _91
REMARK   33  A    between atoms: _94  and  _96
REMARK   34  A    between atoms: _96  and  _97
REMARK   35  A    between atoms: _96  and  _99
REMARK   36  A    between atoms: _99  and  _100
REMARK   37  A    between atoms: _100  and  _101
REMARK   38  A    between atoms: _106  and  _108
REMARK   39  A    between atoms: _108  and  _109
REMARK   40  A    between atoms: _108  and  _111
REMARK   41  A    between atoms: _111  and  _112
REMARK   42  A    between atoms: _118  and  _120
REMARK   43  A    between atoms: _131  and  _134
REMARK   44  A    between atoms: _134  and  _135
REMARK   45  A    between atoms: _143  and  _144
REMARK   46  A    between atoms: _152  and  _154
REMARK   47  A    between atoms: _154  and  _155
REMARK   48  A    between atoms: _154  and  _157
REMARK   49  A    between atoms: _157  and  _158
REMARK   50  A    between atoms: _158  and  _159
REMARK   51  A    between atoms: _162  and  _164
REMARK   52  A    between atoms: _164  and  _165
REMARK   53  A    between atoms: _164  and  _167
REMARK   54  A    between atoms: _167  and  _168
REMARK   55  A    between atoms: _173  and  _175
REMARK   56  A    between atoms: _175  and  _176
REMARK   57  A    between atoms: _175  and  _178
REMARK   58  A    between atoms: _178  and  _179
REMARK   59  A    between atoms: _179  and  _180
REMARK   60  A    between atoms: _183  and  _185
REMARK   61  A    between atoms: _185  and  _186
REMARK   62  A    between atoms: _185  and  _188
REMARK   63  A    between atoms: _188  and  _189
REMARK   64  A    between atoms: _192  and  _194
REMARK   65  A    between atoms: _194  and  _195
REMARK   66  A    between atoms: _194  and  _197
REMARK   67  A    between atoms: _197  and  _198
REMARK   68  A    between atoms: _199  and  ZN_419
REMARK   69  A    between atoms: _203  and  _205
REMARK   70  A    between atoms: _205  and  _206
REMARK   71  A    between atoms: _205  and  _208
REMARK   72  A    between atoms: _208  and  _209
REMARK   73  A    between atoms: _212  and  _214
REMARK   74  A    between atoms: _214  and  _215
REMARK   75  A    between atoms: _214  and  _217
REMARK   76  A    between atoms: _220  and  _222
REMARK   77  A    between atoms: _222  and  _223
REMARK   78  A    between atoms: _222  and  _225
REMARK   79  A    between atoms: _225  and  _226
REMARK   80  A    between atoms: _231  and  _233
REMARK   81  A    between atoms: _233  and  _234
REMARK   82  A    between atoms: _233  and  _236
REMARK   83  A    between atoms: _236  and  _237
REMARK   84  A    between atoms: _243  and  _245
REMARK   85  A    between atoms: _245  and  _246
REMARK   86  A    between atoms: _245  and  _248
REMARK   87  A    between atoms: _251  and  _253
REMARK   88  A    between atoms: _253  and  _254
REMARK   89  A    between atoms: _253  and  _256
REMARK   90  A    between atoms: _256  and  _257
REMARK   91  A    between atoms: _260  and  _262
REMARK   92  A    between atoms: _262  and  _263
REMARK   93  A    between atoms: _266  and  _268
REMARK   94  A    between atoms: _268  and  _269
REMARK   95  A    between atoms: _268  and  _271
REMARK   96  A    between atoms: _274  and  _276
REMARK   97  A    between atoms: _276  and  _277
REMARK   98  A    between atoms: _276  and  _279
REMARK   99  A    between atoms: _279  and  _280
REMARK  100  A    between atoms: _283  and  _285
REMARK  101  A    between atoms: _285  and  _286
REMARK  102  A    between atoms: _288  and  _290
REMARK  103  A    between atoms: _290  and  _291
REMARK  104  A    between atoms: _293  and  _295
REMARK  105  A    between atoms: _295  and  _296
REMARK  106  A    between atoms: _295  and  _298
REMARK  107  A    between atoms: _298  and  _299
REMARK  108  A    between atoms: _301  and  _303
REMARK  109  A    between atoms: _303  and  _304
REMARK  110  A    between atoms: _303  and  _306
REMARK  111  A    between atoms: _306  and  _307
REMARK  112  A    between atoms: _310  and  _312
REMARK  113  A    between atoms: _312  and  _313
REMARK  114  A    between atoms: _312  and  _315
REMARK  115  A    between atoms: _315  and  _316
REMARK  116  A    between atoms: _319  and  _321
REMARK  117  A    between atoms: _321  and  _322
REMARK  118  A    between atoms: _321  and  _324
REMARK  119  A    between atoms: _324  and  _325
REMARK  120  A    between atoms: _329  and  _330
REMARK  121  A    between atoms: _336  and  _337
REMARK  122  A    between atoms: _342  and  _344
REMARK  123  A    between atoms: _344  and  _345
REMARK  124  A    between atoms: _344  and  _347
REMARK  125  A    between atoms: _347  and  _348
REMARK  126  A    between atoms: _351  and  _353
REMARK  127  A    between atoms: _353  and  _354
REMARK  128  A    between atoms: _353  and  _356
REMARK  129  A    between atoms: _356  and  _357
REMARK  130  A    between atoms: _360  and  _362
REMARK  131  A    between atoms: _362  and  _363
REMARK  132  A    between atoms: _362  and  _365
REMARK  133  A    between atoms: _367  and  _369
REMARK  134  A    between atoms: _369  and  _370
REMARK  135  A    between atoms: _369  and  _372
REMARK  136  A    between atoms: _375  and  _377
REMARK  137  A    between atoms: _377  and  _378
REMARK  138  A    between atoms: _377  and  _380
REMARK  139  A    between atoms: _380  and  _381
REMARK  140  A    between atoms: _391  and  _393
REMARK  141  A    between atoms: _393  and  _394
REMARK  142  A    between atoms: _393  and  _396
REMARK  143  A    between atoms: _396  and  _397
REMARK  144  A    between atoms: _402  and  _404
REMARK  145  A    between atoms: _404  and  _405
REMARK  146  A    between atoms: _404  and  _407
REMARK  147  A    between atoms: _407  and  _408
REMARK  148  A    between atoms: _408  and  _409
REMARK  149  A    between atoms: _409  and  _410
REMARK                            x       y       z     vdW  Elec       q    Type
REMARK                         _______ _______ _______ _____ _____    ______ ____
ROOT
ATOM      1  CG  TRP A   1      26.457   1.935  11.990  0.00  0.00    -0.002 A 
ATOM      2  CD2 TRP A   1      25.121   1.420  11.940  0.00  0.00    +0.013 A 
ATOM      3  CE3 TRP A   1      24.541   0.173  12.188  0.00  0.00    +0.001 A 
ATOM      4  CZ3 TRP A   1      23.172   0.028  12.036  0.00  0.00    +0.000 A 
ATOM      5  CH2 TRP A   1      22.362   1.102  11.639  0.00  0.00    +0.001 A 
ATOM      6  CZ2 TRP A   1      22.901   2.333  11.388  0.00  0.00    +0.017 A 
ATOM      7  CE2 TRP A   1      24.281   2.478  11.543  0.00  0.00    +0.056 A 
ATOM      8  NE1 TRP A   1      25.070   3.580  11.362  0.00  0.00    -0.352 N 
ATOM      9  HE1 TRP A   1      24.733   4.518  11.065  0.00  0.00    +0.166 HD
ATOM     10  CD1 TRP A   1      26.370   3.256  11.632  0.00  0.00    +0.068 A 
ENDROOT
BRANCH   1  11
ATOM     11  CB  TRP A   1      27.725   1.228  12.354  0.00  0.00    +0.053 C 
BRANCH  11  12
ATOM     12  CA  TRP A   1      28.423   0.507  11.201  0.00  0.00    +0.137 C 
BRANCH  12  13
ATOM     13  N   TRP A   1      29.100   1.432  10.286  0.00  0.00    -0.239 NA
ATOM     14  H   TRP A   1      29.042   2.458  10.445  0.00  0.00    +0.142 HD
ENDBRANCH  12  13
BRANCH  12  15
ATOM     15  C   TRP A   1      27.439  -0.377  10.434  0.00  0.00    +0.224 C 
ATOM     16  O   TRP A   1      26.880   0.031   9.415  0.00  0.00    -0.287 OA
ENDBRANCH  12  15
ENDBRANCH  11  12
ENDBRANCH   1  11
TORSDOF 4
REMARK  Name = ../refined-set-2016/2q38/2q38_pocket.pdb
REMARK  149 active torsions:
REMARK  status: ('A' for Active; 'I' for Inactive)
REMARK    1  A    between atoms: _1  and  _3
REMARK    2  A    between atoms: _3  and  _4
REMARK    3  A    between atoms: _3  and  _6
REMARK    4  A    between atoms: _6  and  _7
REMARK    5  A    between atoms: _17  and  _19
REMARK    6  A    between atoms: _19  and  _20
REMARK    7  A    between atoms: _19  and  _22
REMARK    8  A    between atoms: _22  and  _23
REMARK    9  A    between atoms: _28  and  _29
REMARK   10  A    between atoms: _31  and  _33
REMARK   11  A    between atoms: _33  and  _34
REMARK   12  A    between atoms: _33  and  _36
REMARK   13  A    between atoms: _36  and  _37
REMARK   14  A    between atoms: _40  and  _41
REMARK   15  A    between atoms: _46  and  _48
REMARK   16  A    between atoms: _48  and  _49
REMARK   17  A    between atoms: _48  and  _51
REMARK   18  A    between atoms: _51  and  _52
REMARK   19  A    between atoms: _57  and  _59
REMARK   20  A    between atoms: _59  and  _60
REMARK   21  A    between atoms: _59  and  _62
REMARK   22  A    between atoms: _62  and  _63
REMARK   23  A    between atoms: _68  and  _70
REMARK   24  A    between atoms: _70  and  _71
REMARK   25  A    between atoms: _74  and  _76
REMARK   26  A    between atoms: _76  and  _77
REMARK   27  A    between atoms: _76  and  _79
REMARK   28  A    between atoms: _79  and  _80
REMARK   29  A    between atoms: _85  and  _87
REMARK   30  A    between atoms: _87  and  _88
REMARK   31  A    between atoms: _87  and  _90
REMARK   32  A    between atoms: _90  and  _91
REMARK   33  A    between atoms: _94  and  _96
REMARK   34  A    between atoms: _96  and  _97
REMARK   35  A    between atoms: _96  and  _99
REMARK   36  A    between atoms: _99  and  _100
REMARK   37  A    between atoms: _100  and  _101
REMARK   38  A    between atoms: _106  and  _108
REMARK   39  A    between atoms: _108  and  _109
REMARK   40  A    between atoms: _108  and  _111
REMARK   41  A    between atoms: _111  and  _112
REMARK   42  A    between atoms: _118  and  _120
REMARK   43  A    between atoms: _131  and  _134
REMARK   44  A    between atoms: _134  and  _135
REMARK   45  A    between atoms: _143  and  _144
REMARK   46  A    between atoms: _152  and  _154
REMARK   47  A    between atoms: _154  and  _155
REMARK   48  A    between atoms: _154  and  _157
REMARK   49  A    between atoms: _157  and  _158
REMARK   50  A    between atoms: _158  and  _159
REMARK   51  A    between atoms: _162  and  _164
REMARK   52  A    between atoms: _164  and  _165
REMARK   53  A    between atoms: _164  and  _167
REMARK   54  A    between atoms: _167  and  _168
REMARK   55  A    between atoms: _173  and  _175
REMARK   56  A    between atoms: _175  and  _176
REMARK   57  A    between atoms: _175  and  _178
REMARK   58  A    between atoms: _178  and  _179
REMARK   59  A    between atoms: _179  and  _180
REMARK   60  A    between atoms: _183  and  _185
REMARK   61  A    between atoms: _185  and  _186
REMARK   62  A    between atoms: _185  and  _188
REMARK   63  A    between atoms: _188  and  _189
REMARK   64  A    between atoms: _192  and  _194
REMARK   65  A    between atoms: _194  and  _195
REMARK   66  A    between atoms: _194  and  _197
REMARK   67  A    between atoms: _197  and  _198
REMARK   68  A    between atoms: _199  and  ZN_419
REMARK   69  A    between atoms: _203  and  _205
REMARK   70  A    between atoms: _205  and  _206
REMARK   71  A    between atoms: _205  and  _208
REMARK   72  A    between atoms: _208  and  _209
REMARK   73  A    between atoms: _212  and  _214
REMARK   74  A    between atoms: _214  and  _215
REMARK   75  A    between atoms: _214  and  _217
REMARK   76  A    between atoms: _220  and  _222
REMARK   77  A    between atoms: _222  and  _223
REMARK   78  A    between atoms: _222  and  _225
REMARK   79  A    between atoms: _225  and  _226
REMARK   80  A    between atoms: _231  and  _233
REMARK   81  A    between atoms: _233  and  _234
REMARK   82  A    between atoms: _233  and  _236
REMARK   83  A    between atoms: _236  and  _237
REMARK   84  A    between atoms: _243  and  _245
REMARK   85  A    between atoms: _245  and  _246
REMARK   86  A    between atoms: _245  and  _248
REMARK   87  A    between atoms: _251  and  _253
REMARK   88  A    between atoms: _253  and  _254
REMARK   89  A    between atoms: _253  and  _256
REMARK   90  A    between atoms: _256  and  _257
REMARK   91  A    between atoms: _260  and  _262
REMARK   92  A    between atoms: _262  and  _263
REMARK   93  A    between atoms: _266  and  _268
REMARK   94  A    between atoms: _268  and  _269
REMARK   95  A    between atoms: _268  and  _271
REMARK   96  A    between atoms: _274  and  _276
REMARK   97  A    between atoms: _276  and  _277
REMARK   98  A    between atoms: _276  and  _279
REMARK   99  A    between atoms: _279  and  _280
REMARK  100  A    between atoms: _283  and  _285
REMARK  101  A    between atoms: _285  and  _286
REMARK  102  A    between atoms: _288  and  _290
REMARK  103  A    between atoms: _290  and  _291
REMARK  104  A    between atoms: _293  and  _295
REMARK  105  A    between atoms: _295  and  _296
REMARK  106  A    between atoms: _295  and  _298
REMARK  107  A    between atoms: _298  and  _299
REMARK  108  A    between atoms: _301  and  _303
REMARK  109  A    between atoms: _303  and  _304
REMARK  110  A    between atoms: _303  and  _306
REMARK  111  A    between atoms: _306  and  _307
REMARK  112  A    between atoms: _310  and  _312
REMARK  113  A    between atoms: _312  and  _313
REMARK  114  A    between atoms: _312  and  _315
REMARK  115  A    between atoms: _315  and  _316
REMARK  116  A    between atoms: _319  and  _321
REMARK  117  A    between atoms: _321  and  _322
REMARK  118  A    between atoms: _321  and  _324
REMARK  119  A    between atoms: _324  and  _325
REMARK  120  A    between atoms: _329  and  _330
REMARK  121  A    between atoms: _336  and  _337
REMARK  122  A    between atoms: _342  and  _344
REMARK  123  A    between atoms: _344  and  _345
REMARK  124  A    between atoms: _344  and  _347
REMARK  125  A    between atoms: _347  and  _348
REMARK  126  A    between atoms: _351  and  _353
REMARK  127  A    between atoms: _353  and  _354
REMARK  128  A    between atoms: _353  and  _356
REMARK  129  A    between atoms: _356  and  _357
REMARK  130  A    between atoms: _360  and  _362
REMARK  131  A    between atoms: _362  and  _363
REMARK  132  A    between atoms: _362  and  _365
REMARK  133  A    between atoms: _367  and  _369
REMARK  134  A    between atoms: _369  and  _370
REMARK  135  A    between atoms: _369  and  _372
REMARK  136  A    between atoms: _375  and  _377
REMARK  137  A    between atoms: _377  and  _378
REMARK  138  A    between atoms: _377  and  _380
REMARK  139  A    between atoms: _380  and  _381
REMARK  140  A    between atoms: _391  and  _393
REMARK  141  A    between atoms: _393  and  _394
REMARK  142  A    between atoms: _393  and  _396
REMARK  143  A    between atoms: _396  and  _397
REMARK  144  A    between atoms: _402  and  _404
REMARK  145  A    between atoms: _404  and  _405
REMARK  146  A    between atoms: _404  and  _407
REMARK  147  A    between atoms: _407  and  _408
REMARK  148  A    between atoms: _408  and  _409
REMARK  149  A    between atoms: _409  and  _410
REMARK                            x       y       z     vdW  Elec       q    Type
REMARK                         _______ _______ _______ _____ _____    ______ ____
ROOT
ATOM      1  CG  TYR A   1      22.931  -5.195  11.933  0.00  0.00    -0.020 A 
ATOM      2  CD2 TYR A   1      22.474  -5.079  13.235  0.00  0.00    -0.001 A 
ATOM      3  CE2 TYR A   1      21.636  -4.051  13.616  0.00  0.00    +0.036 A 
ATOM      4  CZ  TYR A   1      21.249  -3.119  12.678  0.00  0.00    +0.134 A 
ATOM      5  CE1 TYR A   1      21.692  -3.205  11.374  0.00  0.00    +0.036 A 
ATOM      6  CD1 TYR A   1      22.534  -4.241  11.008  0.00  0.00    -0.001 A 
ENDROOT
BRANCH   4   7
ATOM      7  OH  TYR A   1      20.409  -2.094  13.058  0.00  0.00    -0.506 OA
ATOM      8  HH  TYR A   1      20.193  -2.186  14.020  0.00  0.00    +0.292 HD
ENDBRANCH   4   7
BRANCH   1   9
ATOM      9  CB  TYR A   1      23.859  -6.334  11.541  0.00  0.00    +0.051 C 
BRANCH   9  10
ATOM     10  CA  TYR A   1      25.335  -5.939  11.718  0.00  0.00    +0.137 C 
BRANCH  10  11
ATOM     11  N   TYR A   1      25.660  -4.791  10.886  0.00  0.00    -0.239 NA
ATOM     12  H   TYR A   1      25.666  -4.909   9.853  0.00  0.00    +0.142 HD
ENDBRANCH  10  11
BRANCH  10  13
ATOM     13  C   TYR A   1      26.244  -7.118  11.395  0.00  0.00    +0.224 C 
ATOM     14  O   TYR A   1      25.998  -8.230  11.854  0.00  0.00    -0.287 OA
ENDBRANCH  10  13
ENDBRANCH   9  10
ENDBRANCH   1   9
TORSDOF 5
REMARK  Name = ../refined-set-2016/2q38/2q38_pocket.pdb
REMARK  149 active torsions:
REMARK  status: ('A' for Active; 'I' for Inactive)
REMARK    1  A    between atoms: _1  and  _3
REMARK    2  A    between atoms: _3  and  _4
REMARK    3  A    between atoms: _3  and  _6
REMARK    4  A    between atoms: _6  and  _7
REMARK    5  A    between atoms: _17  and  _19
REMARK    6  A    between atoms: _19  and  _20
REMARK    7  A    between atoms: _19  and  _22
REMARK    8  A    between atoms: _22  and  _23
REMARK    9  A    between atoms: _28  and  _29
REMARK   10  A    between atoms: _31  and  _33
REMARK   11  A    between atoms: _33  and  _34
REMARK   12  A    between atoms: _33  and  _36
REMARK   13  A    between atoms: _36  and  _37
REMARK   14  A    between atoms: _40  and  _41
REMARK   15  A    between atoms: _46  and  _48
REMARK   16  A    between atoms: _48  and  _49
REMARK   17  A    between atoms: _48  and  _51
REMARK   18  A    between atoms: _51  and  _52
REMARK   19  A    between atoms: _57  and  _59
REMARK   20  A    between atoms: _59  and  _60
REMARK   21  A    between atoms: _59  and  _62
REMARK   22  A    between atoms: _62  and  _63
REMARK   23  A    between atoms: _68  and  _70
REMARK   24  A    between atoms: _70  and  _71
REMARK   25  A    between atoms: _74  and  _76
REMARK   26  A    between atoms: _76  and  _77
REMARK   27  A    between atoms: _76  and  _79
REMARK   28  A    between atoms: _79  and  _80
REMARK   29  A    between atoms: _85  and  _87
REMARK   30  A    between atoms: _87  and  _88
REMARK   31  A    between atoms: _87  and  _90
REMARK   32  A    between atoms: _90  and  _91
REMARK   33  A    between atoms: _94  and  _96
REMARK   34  A    between atoms: _96  and  _97
REMARK   35  A    between atoms: _96  and  _99
REMARK   36  A    between atoms: _99  and  _100
REMARK   37  A    between atoms: _100  and  _101
REMARK   38  A    between atoms: _106  and  _108
REMARK   39  A    between atoms: _108  and  _109
REMARK   40  A    between atoms: _108  and  _111
REMARK   41  A    between atoms: _111  and  _112
REMARK   42  A    between atoms: _118  and  _120
REMARK   43  A    between atoms: _131  and  _134
REMARK   44  A    between atoms: _134  and  _135
REMARK   45  A    between atoms: _143  and  _144
REMARK   46  A    between atoms: _152  and  _154
REMARK   47  A    between atoms: _154  and  _155
REMARK   48  A    between atoms: _154  and  _157
REMARK   49  A    between atoms: _157  and  _158
REMARK   50  A    between atoms: _158  and  _159
REMARK   51  A    between atoms: _162  and  _164
REMARK   52  A    between atoms: _164  and  _165
REMARK   53  A    between atoms: _164  and  _167
REMARK   54  A    between atoms: _167  and  _168
REMARK   55  A    between atoms: _173  and  _175
REMARK   56  A    between atoms: _175  and  _176
REMARK   57  A    between atoms: _175  and  _178
REMARK   58  A    between atoms: _178  and  _179
REMARK   59  A    between atoms: _179  and  _180
REMARK   60  A    between atoms: _183  and  _185
REMARK   61  A    between atoms: _185  and  _186
REMARK   62  A    between atoms: _185  and  _188
REMARK   63  A    between atoms: _188  and  _189
REMARK   64  A    between atoms: _192  and  _194
REMARK   65  A    between atoms: _194  and  _195
REMARK   66  A    between atoms: _194  and  _197
REMARK   67  A    between atoms: _197  and  _198
REMARK   68  A    between atoms: _199  and  ZN_419
REMARK   69  A    between atoms: _203  and  _205
REMARK   70  A    between atoms: _205  and  _206
REMARK   71  A    between atoms: _205  and  _208
REMARK   72  A    between atoms: _208  and  _209
REMARK   73  A    between atoms: _212  and  _214
REMARK   74  A    between atoms: _214  and  _215
REMARK   75  A    between atoms: _214  and  _217
REMARK   76  A    between atoms: _220  and  _222
REMARK   77  A    between atoms: _222  and  _223
REMARK   78  A    between atoms: _222  and  _225
REMARK   79  A    between atoms: _225  and  _226
REMARK   80  A    between atoms: _231  and  _233
REMARK   81  A    between atoms: _233  and  _234
REMARK   82  A    between atoms: _233  and  _236
REMARK   83  A    between atoms: _236  and  _237
REMARK   84  A    between atoms: _243  and  _245
REMARK   85  A    between atoms: _245  and  _246
REMARK   86  A    between atoms: _245  and  _248
REMARK   87  A    between atoms: _251  and  _253
REMARK   88  A    between atoms: _253  and  _254
REMARK   89  A    between atoms: _253  and  _256
REMARK   90  A    between atoms: _256  and  _257
REMARK   91  A    between atoms: _260  and  _262
REMARK   92  A    between atoms: _262  and  _263
REMARK   93  A    between atoms: _266  and  _268
REMARK   94  A    between atoms: _268  and  _269
REMARK   95  A    between atoms: _268  and  _271
REMARK   96  A    between atoms: _274  and  _276
REMARK   97  A    between atoms: _276  and  _277
REMARK   98  A    between atoms: _276  and  _279
REMARK   99  A    between atoms: _279  and  _280
REMARK  100  A    between atoms: _283  and  _285
REMARK  101  A    between atoms: _285  and  _286
REMARK  102  A    between atoms: _288  and  _290
REMARK  103  A    between atoms: _290  and  _291
REMARK  104  A    between atoms: _293  and  _295
REMARK  105  A    between atoms: _295  and  _296
REMARK  106  A    between atoms: _295  and  _298
REMARK  107  A    between atoms: _298  and  _299
REMARK  108  A    between atoms: _301  and  _303
REMARK  109  A    between atoms: _303  and  _304
REMARK  110  A    between atoms: _303  and  _306
REMARK  111  A    between atoms: _306  and  _307
REMARK  112  A    between atoms: _310  and  _312
REMARK  113  A    between atoms: _312  and  _313
REMARK  114  A    between atoms: _312  and  _315
REMARK  115  A    between atoms: _315  and  _316
REMARK  116  A    between atoms: _319  and  _321
REMARK  117  A    between atoms: _321  and  _322
REMARK  118  A    between atoms: _321  and  _324
REMARK  119  A    between atoms: _324  and  _325
REMARK  120  A    between atoms: _329  and  _330
REMARK  121  A    between atoms: _336  and  _337
REMARK  122  A    between atoms: _342  and  _344
REMARK  123  A    between atoms: _344  and  _345
REMARK  124  A    between atoms: _344  and  _347
REMARK  125  A    between atoms: _347  and  _348
REMARK  126  A    between atoms: _351  and  _353
REMARK  127  A    between atoms: _353  and  _354
REMARK  128  A    between atoms: _353  and  _356
REMARK  129  A    between atoms: _356  and  _357
REMARK  130  A    between atoms: _360  and  _362
REMARK  131  A    between atoms: _362  and  _363
REMARK  132  A    between atoms: _362  and  _365
REMARK  133  A    between atoms: _367  and  _369
REMARK  134  A    between atoms: _369  and  _370
REMARK  135  A    between atoms: _369  and  _372
REMARK  136  A    between atoms: _375  and  _377
REMARK  137  A    between atoms: _377  and  _378
REMARK  138  A    between atoms: _377  and  _380
REMARK  139  A    between atoms: _380  and  _381
REMARK  140  A    between atoms: _391  and  _393
REMARK  141  A    between atoms: _393  and  _394
REMARK  142  A    between atoms: _393  and  _396
REMARK  143  A    between atoms: _396  and  _397
REMARK  144  A    between atoms: _402  and  _404
REMARK  145  A    between atoms: _404  and  _405
REMARK  146  A    between atoms: _404  and  _407
REMARK  147  A    between atoms: _407  and  _408
REMARK  148  A    between atoms: _408  and  _409
REMARK  149  A    between atoms: _409  and  _410
REMARK                            x       y       z     vdW  Elec       q    Type
REMARK                         _______ _______ _______ _____ _____    ______ ____
ROOT
ATOM      1  C   SER A   1      18.722  -1.131  23.037  0.00  0.00    +0.244 C 
ATOM      2  N   PRO A   2      18.137  -2.310  22.855  0.00  0.00    -0.273 N 
ATOM      3  CA  PRO A   2      16.970  -2.717  23.641  0.00  0.00    +0.140 C 
ATOM      4  CB  PRO A   2      16.324  -3.760  22.735  0.00  0.00    +0.030 C 
ATOM      5  CG  PRO A   2      17.543  -4.484  22.234  0.00  0.00    +0.024 C 
ATOM      6  CD  PRO A   2      18.525  -3.375  21.915  0.00  0.00    +0.094 C 
ATOM      7  O   SER A   1      19.694  -0.708  22.410  0.00  0.00    -0.273 OA
ENDROOT
BRANCH   3   8
ATOM      8  C   PRO A   2      17.378  -3.390  24.946  0.00  0.00    +0.227 C 
ATOM      9  O   PRO A   2      18.558  -3.400  25.296  0.00  0.00    -0.286 OA
ENDBRANCH   3   8
BRANCH   1  10
ATOM     10  CA  SER A   1      18.140  -0.265  24.142  0.00  0.00    +0.175 C 
BRANCH  10  11
ATOM     11  N   SER A   1      19.138   0.612  24.689  0.00  0.00    -0.236 NA
ATOM     12  H   SER A   1      19.604   1.248  24.011  0.00  0.00    +0.142 HD
ENDBRANCH  10  11
BRANCH  10  13
ATOM     13  CB  SER A   1      16.957   0.583  23.636  0.00  0.00    +0.163 C 
BRANCH  13  14
ATOM     14  OG  SER A   1      16.370   1.157  24.802  0.00  0.00    -0.380 OA
ATOM     15  H   SER A   1      16.064   0.435  25.406  0.00  0.00    +0.211 HD
ENDBRANCH  13  14
ENDBRANCH  10  13
ENDBRANCH   1  10
TORSDOF 5
REMARK  Name = ../refined-set-2016/2q38/2q38_pocket.pdb
REMARK  149 active torsions:
REMARK  status: ('A' for Active; 'I' for Inactive)
REMARK    1  A    between atoms: _1  and  _3
REMARK    2  A    between atoms: _3  and  _4
REMARK    3  A    between atoms: _3  and  _6
REMARK    4  A    between atoms: _6  and  _7
REMARK    5  A    between atoms: _17  and  _19
REMARK    6  A    between atoms: _19  and  _20
REMARK    7  A    between atoms: _19  and  _22
REMARK    8  A    between atoms: _22  and  _23
REMARK    9  A    between atoms: _28  and  _29
REMARK   10  A    between atoms: _31  and  _33
REMARK   11  A    between atoms: _33  and  _34
REMARK   12  A    between atoms: _33  and  _36
REMARK   13  A    between atoms: _36  and  _37
REMARK   14  A    between atoms: _40  and  _41
REMARK   15  A    between atoms: _46  and  _48
REMARK   16  A    between atoms: _48  and  _49
REMARK   17  A    between atoms: _48  and  _51
REMARK   18  A    between atoms: _51  and  _52
REMARK   19  A    between atoms: _57  and  _59
REMARK   20  A    between atoms: _59  and  _60
REMARK   21  A    between atoms: _59  and  _62
REMARK   22  A    between atoms: _62  and  _63
REMARK   23  A    between atoms: _68  and  _70
REMARK   24  A    between atoms: _70  and  _71
REMARK   25  A    between atoms: _74  and  _76
REMARK   26  A    between atoms: _76  and  _77
REMARK   27  A    between atoms: _76  and  _79
REMARK   28  A    between atoms: _79  and  _80
REMARK   29  A    between atoms: _85  and  _87
REMARK   30  A    between atoms: _87  and  _88
REMARK   31  A    between atoms: _87  and  _90
REMARK   32  A    between atoms: _90  and  _91
REMARK   33  A    between atoms: _94  and  _96
REMARK   34  A    between atoms: _96  and  _97
REMARK   35  A    between atoms: _96  and  _99
REMARK   36  A    between atoms: _99  and  _100
REMARK   37  A    between atoms: _100  and  _101
REMARK   38  A    between atoms: _106  and  _108
REMARK   39  A    between atoms: _108  and  _109
REMARK   40  A    between atoms: _108  and  _111
REMARK   41  A    between atoms: _111  and  _112
REMARK   42  A    between atoms: _118  and  _120
REMARK   43  A    between atoms: _131  and  _134
REMARK   44  A    between atoms: _134  and  _135
REMARK   45  A    between atoms: _143  and  _144
REMARK   46  A    between atoms: _152  and  _154
REMARK   47  A    between atoms: _154  and  _155
REMARK   48  A    between atoms: _154  and  _157
REMARK   49  A    between atoms: _157  and  _158
REMARK   50  A    between atoms: _158  and  _159
REMARK   51  A    between atoms: _162  and  _164
REMARK   52  A    between atoms: _164  and  _165
REMARK   53  A    between atoms: _164  and  _167
REMARK   54  A    between atoms: _167  and  _168
REMARK   55  A    between atoms: _173  and  _175
REMARK   56  A    between atoms: _175  and  _176
REMARK   57  A    between atoms: _175  and  _178
REMARK   58  A    between atoms: _178  and  _179
REMARK   59  A    between atoms: _179  and  _180
REMARK   60  A    between atoms: _183  and  _185
REMARK   61  A    between atoms: _185  and  _186
REMARK   62  A    between atoms: _185  and  _188
REMARK   63  A    between atoms: _188  and  _189
REMARK   64  A    between atoms: _192  and  _194
REMARK   65  A    between atoms: _194  and  _195
REMARK   66  A    between atoms: _194  and  _197
REMARK   67  A    between atoms: _197  and  _198
REMARK   68  A    between atoms: _199  and  ZN_419
REMARK   69  A    between atoms: _203  and  _205
REMARK   70  A    between atoms: _205  and  _206
REMARK   71  A    between atoms: _205  and  _208
REMARK   72  A    between atoms: _208  and  _209
REMARK   73  A    between atoms: _212  and  _214
REMARK   74  A    between atoms: _214  and  _215
REMARK   75  A    between atoms: _214  and  _217
REMARK   76  A    between atoms: _220  and  _222
REMARK   77  A    between atoms: _222  and  _223
REMARK   78  A    between atoms: _222  and  _225
REMARK   79  A    between atoms: _225  and  _226
REMARK   80  A    between atoms: _231  and  _233
REMARK   81  A    between atoms: _233  and  _234
REMARK   82  A    between atoms: _233  and  _236
REMARK   83  A    between atoms: _236  and  _237
REMARK   84  A    between atoms: _243  and  _245
REMARK   85  A    between atoms: _245  and  _246
REMARK   86  A    between atoms: _245  and  _248
REMARK   87  A    between atoms: _251  and  _253
REMARK   88  A    between atoms: _253  and  _254
REMARK   89  A    between atoms: _253  and  _256
REMARK   90  A    between atoms: _256  and  _257
REMARK   91  A    between atoms: _260  and  _262
REMARK   92  A    between atoms: _262  and  _263
REMARK   93  A    between atoms: _266  and  _268
REMARK   94  A    between atoms: _268  and  _269
REMARK   95  A    between atoms: _268  and  _271
REMARK   96  A    between atoms: _274  and  _276
REMARK   97  A    between atoms: _276  and  _277
REMARK   98  A    between atoms: _276  and  _279
REMARK   99  A    between atoms: _279  and  _280
REMARK  100  A    between atoms: _283  and  _285
REMARK  101  A    between atoms: _285  and  _286
REMARK  102  A    between atoms: _288  and  _290
REMARK  103  A    between atoms: _290  and  _291
REMARK  104  A    between atoms: _293  and  _295
REMARK  105  A    between atoms: _295  and  _296
REMARK  106  A    between atoms: _295  and  _298
REMARK  107  A    between atoms: _298  and  _299
REMARK  108  A    between atoms: _301  and  _303
REMARK  109  A    between atoms: _303  and  _304
REMARK  110  A    between atoms: _303  and  _306
REMARK  111  A    between atoms: _306  and  _307
REMARK  112  A    between atoms: _310  and  _312
REMARK  113  A    between atoms: _312  and  _313
REMARK  114  A    between atoms: _312  and  _315
REMARK  115  A    between atoms: _315  and  _316
REMARK  116  A    between atoms: _319  and  _321
REMARK  117  A    between atoms: _321  and  _322
REMARK  118  A    between atoms: _321  and  _324
REMARK  119  A    between atoms: _324  and  _325
REMARK  120  A    between atoms: _329  and  _330
REMARK  121  A    between atoms: _336  and  _337
REMARK  122  A    between atoms: _342  and  _344
REMARK  123  A    between atoms: _344  and  _345
REMARK  124  A    between atoms: _344  and  _347
REMARK  125  A    between atoms: _347  and  _348
REMARK  126  A    between atoms: _351  and  _353
REMARK  127  A    between atoms: _353  and  _354
REMARK  128  A    between atoms: _353  and  _356
REMARK  129  A    between atoms: _356  and  _357
REMARK  130  A    between atoms: _360  and  _362
REMARK  131  A    between atoms: _362  and  _363
REMARK  132  A    between atoms: _362  and  _365
REMARK  133  A    between atoms: _367  and  _369
REMARK  134  A    between atoms: _369  and  _370
REMARK  135  A    between atoms: _369  and  _372
REMARK  136  A    between atoms: _375  and  _377
REMARK  137  A    between atoms: _377  and  _378
REMARK  138  A    between atoms: _377  and  _380
REMARK  139  A    between atoms: _380  and  _381
REMARK  140  A    between atoms: _391  and  _393
REMARK  141  A    between atoms: _393  and  _394
REMARK  142  A    between atoms: _393  and  _396
REMARK  143  A    between atoms: _396  and  _397
REMARK  144  A    between atoms: _402  and  _404
REMARK  145  A    between atoms: _404  and  _405
REMARK  146  A    between atoms: _404  and  _407
REMARK  147  A    between atoms: _407  and  _408
REMARK  148  A    between atoms: _408  and  _409
REMARK  149  A    between atoms: _409  and  _410
REMARK                            x       y       z     vdW  Elec       q    Type
REMARK                         _______ _______ _______ _____ _____    ______ ____
ROOT
ATOM      1  CB  ASN A   1      18.570   3.801   5.252  0.00  0.00    +0.110 C 
ENDROOT
BRANCH   1   2
ATOM      2  CG  ASN A   1      18.466   2.932   6.490  0.00  0.00    +0.221 C 
ATOM      3  ND2 ASN A   1      18.328   3.611   7.624  0.00  0.00    -0.329 N 
ATOM      4 HD21 ASN A   1      18.254   3.103   8.528  0.00  0.00    +0.145 HD
ATOM      5 HD22 ASN A   1      18.294   4.650   7.607  0.00  0.00    +0.145 HD
ATOM      6  OD1 ASN A   1      18.512   1.704   6.450  0.00  0.00    -0.275 OA
ENDBRANCH   1   2
BRANCH   1   7
ATOM      7  CA  ASN A   1      18.928   2.995   4.005  0.00  0.00    +0.142 C 
BRANCH   7   8
ATOM      8  N   ASN A   1      17.797   2.166   3.592  0.00  0.00    -0.239 NA
ATOM      9  H   ASN A   1      17.254   1.617   4.289  0.00  0.00    +0.142 HD
ENDBRANCH   7   8
BRANCH   7  10
ATOM     10  C   ASN A   1      20.186   2.177   4.263  0.00  0.00    +0.225 C 
ATOM     11  O   ASN A   1      21.096   2.696   4.899  0.00  0.00    -0.287 OA
ENDBRANCH   7  10
ENDBRANCH   1   7
TORSDOF 4
REMARK  Name = ../refined-set-2016/2q38/2q38_pocket.pdb
REMARK  149 active torsions:
REMARK  status: ('A' for Active; 'I' for Inactive)
REMARK    1  A    between atoms: _1  and  _3
REMARK    2  A    between atoms: _3  and  _4
REMARK    3  A    between atoms: _3  and  _6
REMARK    4  A    between atoms: _6  and  _7
REMARK    5  A    between atoms: _17  and  _19
REMARK    6  A    between atoms: _19  and  _20
REMARK    7  A    between atoms: _19  and  _22
REMARK    8  A    between atoms: _22  and  _23
REMARK    9  A    between atoms: _28  and  _29
REMARK   10  A    between atoms: _31  and  _33
REMARK   11  A    between atoms: _33  and  _34
REMARK   12  A    between atoms: _33  and  _36
REMARK   13  A    between atoms: _36  and  _37
REMARK   14  A    between atoms: _40  and  _41
REMARK   15  A    between atoms: _46  and  _48
REMARK   16  A    between atoms: _48  and  _49
REMARK   17  A    between atoms: _48  and  _51
REMARK   18  A    between atoms: _51  and  _52
REMARK   19  A    between atoms: _57  and  _59
REMARK   20  A    between atoms: _59  and  _60
REMARK   21  A    between atoms: _59  and  _62
REMARK   22  A    between atoms: _62  and  _63
REMARK   23  A    between atoms: _68  and  _70
REMARK   24  A    between atoms: _70  and  _71
REMARK   25  A    between atoms: _74  and  _76
REMARK   26  A    between atoms: _76  and  _77
REMARK   27  A    between atoms: _76  and  _79
REMARK   28  A    between atoms: _79  and  _80
REMARK   29  A    between atoms: _85  and  _87
REMARK   30  A    between atoms: _87  and  _88
REMARK   31  A    between atoms: _87  and  _90
REMARK   32  A    between atoms: _90  and  _91
REMARK   33  A    between atoms: _94  and  _96
REMARK   34  A    between atoms: _96  and  _97
REMARK   35  A    between atoms: _96  and  _99
REMARK   36  A    between atoms: _99  and  _100
REMARK   37  A    between atoms: _100  and  _101
REMARK   38  A    between atoms: _106  and  _108
REMARK   39  A    between atoms: _108  and  _109
REMARK   40  A    between atoms: _108  and  _111
REMARK   41  A    between atoms: _111  and  _112
REMARK   42  A    between atoms: _118  and  _120
REMARK   43  A    between atoms: _131  and  _134
REMARK   44  A    between atoms: _134  and  _135
REMARK   45  A    between atoms: _143  and  _144
REMARK   46  A    between atoms: _152  and  _154
REMARK   47  A    between atoms: _154  and  _155
REMARK   48  A    between atoms: _154  and  _157
REMARK   49  A    between atoms: _157  and  _158
REMARK   50  A    between atoms: _158  and  _159
REMARK   51  A    between atoms: _162  and  _164
REMARK   52  A    between atoms: _164  and  _165
REMARK   53  A    between atoms: _164  and  _167
REMARK   54  A    between atoms: _167  and  _168
REMARK   55  A    between atoms: _173  and  _175
REMARK   56  A    between atoms: _175  and  _176
REMARK   57  A    between atoms: _175  and  _178
REMARK   58  A    between atoms: _178  and  _179
REMARK   59  A    between atoms: _179  and  _180
REMARK   60  A    between atoms: _183  and  _185
REMARK   61  A    between atoms: _185  and  _186
REMARK   62  A    between atoms: _185  and  _188
REMARK   63  A    between atoms: _188  and  _189
REMARK   64  A    between atoms: _192  and  _194
REMARK   65  A    between atoms: _194  and  _195
REMARK   66  A    between atoms: _194  and  _197
REMARK   67  A    between atoms: _197  and  _198
REMARK   68  A    between atoms: _199  and  ZN_419
REMARK   69  A    between atoms: _203  and  _205
REMARK   70  A    between atoms: _205  and  _206
REMARK   71  A    between atoms: _205  and  _208
REMARK   72  A    between atoms: _208  and  _209
REMARK   73  A    between atoms: _212  and  _214
REMARK   74  A    between atoms: _214  and  _215
REMARK   75  A    between atoms: _214  and  _217
REMARK   76  A    between atoms: _220  and  _222
REMARK   77  A    between atoms: _222  and  _223
REMARK   78  A    between atoms: _222  and  _225
REMARK   79  A    between atoms: _225  and  _226
REMARK   80  A    between atoms: _231  and  _233
REMARK   81  A    between atoms: _233  and  _234
REMARK   82  A    between atoms: _233  and  _236
REMARK   83  A    between atoms: _236  and  _237
REMARK   84  A    between atoms: _243  and  _245
REMARK   85  A    between atoms: _245  and  _246
REMARK   86  A    between atoms: _245  and  _248
REMARK   87  A    between atoms: _251  and  _253
REMARK   88  A    between atoms: _253  and  _254
REMARK   89  A    between atoms: _253  and  _256
REMARK   90  A    between atoms: _256  and  _257
REMARK   91  A    between atoms: _260  and  _262
REMARK   92  A    between atoms: _262  and  _263
REMARK   93  A    between atoms: _266  and  _268
REMARK   94  A    between atoms: _268  and  _269
REMARK   95  A    between atoms: _268  and  _271
REMARK   96  A    between atoms: _274  and  _276
REMARK   97  A    between atoms: _276  and  _277
REMARK   98  A    between atoms: _276  and  _279
REMARK   99  A    between atoms: _279  and  _280
REMARK  100  A    between atoms: _283  and  _285
REMARK  101  A    between atoms: _285  and  _286
REMARK  102  A    between atoms: _288  and  _290
REMARK  103  A    between atoms: _290  and  _291
REMARK  104  A    between atoms: _293  and  _295
REMARK  105  A    between atoms: _295  and  _296
REMARK  106  A    between atoms: _295  and  _298
REMARK  107  A    between atoms: _298  and  _299
REMARK  108  A    between atoms: _301  and  _303
REMARK  109  A    between atoms: _303  and  _304
REMARK  110  A    between atoms: _303  and  _306
REMARK  111  A    between atoms: _306  and  _307
REMARK  112  A    between atoms: _310  and  _312
REMARK  113  A    between atoms: _312  and  _313
REMARK  114  A    between atoms: _312  and  _315
REMARK  115  A    between atoms: _315  and  _316
REMARK  116  A    between atoms: _319  and  _321
REMARK  117  A    between atoms: _321  and  _322
REMARK  118  A    between atoms: _321  and  _324
REMARK  119  A    between atoms: _324  and  _325
REMARK  120  A    between atoms: _329  and  _330
REMARK  121  A    between atoms: _336  and  _337
REMARK  122  A    between atoms: _342  and  _344
REMARK  123  A    between atoms: _344  and  _345
REMARK  124  A    between atoms: _344  and  _347
REMARK  125  A    between atoms: _347  and  _348
REMARK  126  A    between atoms: _351  and  _353
REMARK  127  A    between atoms: _353  and  _354
REMARK  128  A    between atoms: _353  and  _356
REMARK  129  A    between atoms: _356  and  _357
REMARK  130  A    between atoms: _360  and  _362
REMARK  131  A    between atoms: _362  and  _363
REMARK  132  A    between atoms: _362  and  _365
REMARK  133  A    between atoms: _367  and  _369
REMARK  134  A    between atoms: _369  and  _370
REMARK  135  A    between atoms: _369  and  _372
REMARK  136  A    between atoms: _375  and  _377
REMARK  137  A    between atoms: _377  and  _378
REMARK  138  A    between atoms: _377  and  _380
REMARK  139  A    between atoms: _380  and  _381
REMARK  140  A    between atoms: _391  and  _393
REMARK  141  A    between atoms: _393  and  _394
REMARK  142  A    between atoms: _393  and  _396
REMARK  143  A    between atoms: _396  and  _397
REMARK  144  A    between atoms: _402  and  _404
REMARK  145  A    between atoms: _404  and  _405
REMARK  146  A    between atoms: _404  and  _407
REMARK  147  A    between atoms: _407  and  _408
REMARK  148  A    between atoms: _408  and  _409
REMARK  149  A    between atoms: _409  and  _410
REMARK                            x       y       z     vdW  Elec       q    Type
REMARK                         _______ _______ _______ _____ _____    ______ ____
ROOT
ATOM      1  CA  HIS A   1      20.274  -0.936   7.535  0.00  0.00    +0.151 C 
ENDROOT
BRANCH   1   2
ATOM      2  C   HIS A   1      18.894  -1.530   7.801  0.00  0.00    +0.239 C 
ATOM      3  O   HIS A   1      18.777  -2.532   8.508  0.00  0.00    -0.274 OA
ATOM      4  N   ALA A   2      17.862  -0.914   7.272  0.00  0.00    -0.298 N 
ATOM      5  H   ALA A   2      18.052  -0.046   6.731  0.00  0.00    +0.150 HD
BRANCH   4   6
ATOM      6  CA  ALA A   2      16.482  -1.340   7.378  0.00  0.00    +0.137 C 
ATOM      7  CB  ALA A   2      15.901  -1.034   8.749  0.00  0.00    +0.030 C 
BRANCH   6   8
ATOM      8  C   ALA A   2      15.758  -0.608   6.252  0.00  0.00    +0.227 C 
ATOM      9  O   ALA A   2      16.484   0.018   5.471  0.00  0.00    -0.286 OA
ENDBRANCH   6   8
ENDBRANCH   4   6
ENDBRANCH   1   2
BRANCH   1  10
ATOM     10  N   HIS A   1      20.431  -0.273   6.241  0.00  0.00    -0.238 NA
ATOM     11  H   HIS A   1      19.755   0.474   5.982  0.00  0.00    +0.142 HD
ENDBRANCH   1  10
BRANCH   1  12
ATOM     12  CB  HIS A   1      20.567   0.042   8.694  0.00  0.00    +0.074 C 
BRANCH  12  13
ATOM     13  CG  HIS A   1      21.848   0.743   8.366  0.00  0.00    +0.082 A 
ATOM     14  ND1 HIS A   1      23.069   0.209   8.711  0.00  0.00    -0.227 NA
ATOM     15  CE1 HIS A   1      24.024   1.024   8.287  0.00  0.00    +0.199 A 
ATOM     16  NE2 HIS A   1      23.430   2.026   7.676  0.00  0.00    -0.221 NA
ATOM     17  CD2 HIS A   1      22.088   1.889   7.695  0.00  0.00    +0.115 A 
ENDBRANCH  12  13
ENDBRANCH   1  12
TORSDOF 6
REMARK  Name = ../refined-set-2016/2q38/2q38_pocket.pdb
REMARK  149 active torsions:
REMARK  status: ('A' for Active; 'I' for Inactive)
REMARK    1  A    between atoms: _1  and  _3
REMARK    2  A    between atoms: _3  and  _4
REMARK    3  A    between atoms: _3  and  _6
REMARK    4  A    between atoms: _6  and  _7
REMARK    5  A    between atoms: _17  and  _19
REMARK    6  A    between atoms: _19  and  _20
REMARK    7  A    between atoms: _19  and  _22
REMARK    8  A    between atoms: _22  and  _23
REMARK    9  A    between atoms: _28  and  _29
REMARK   10  A    between atoms: _31  and  _33
REMARK   11  A    between atoms: _33  and  _34
REMARK   12  A    between atoms: _33  and  _36
REMARK   13  A    between atoms: _36  and  _37
REMARK   14  A    between atoms: _40  and  _41
REMARK   15  A    between atoms: _46  and  _48
REMARK   16  A    between atoms: _48  and  _49
REMARK   17  A    between atoms: _48  and  _51
REMARK   18  A    between atoms: _51  and  _52
REMARK   19  A    between atoms: _57  and  _59
REMARK   20  A    between atoms: _59  and  _60
REMARK   21  A    between atoms: _59  and  _62
REMARK   22  A    between atoms: _62  and  _63
REMARK   23  A    between atoms: _68  and  _70
REMARK   24  A    between atoms: _70  and  _71
REMARK   25  A    between atoms: _74  and  _76
REMARK   26  A    between atoms: _76  and  _77
REMARK   27  A    between atoms: _76  and  _79
REMARK   28  A    between atoms: _79  and  _80
REMARK   29  A    between atoms: _85  and  _87
REMARK   30  A    between atoms: _87  and  _88
REMARK   31  A    between atoms: _87  and  _90
REMARK   32  A    between atoms: _90  and  _91
REMARK   33  A    between atoms: _94  and  _96
REMARK   34  A    between atoms: _96  and  _97
REMARK   35  A    between atoms: _96  and  _99
REMARK   36  A    between atoms: _99  and  _100
REMARK   37  A    between atoms: _100  and  _101
REMARK   38  A    between atoms: _106  and  _108
REMARK   39  A    between atoms: _108  and  _109
REMARK   40  A    between atoms: _108  and  _111
REMARK   41  A    between atoms: _111  and  _112
REMARK   42  A    between atoms: _118  and  _120
REMARK   43  A    between atoms: _131  and  _134
REMARK   44  A    between atoms: _134  and  _135
REMARK   45  A    between atoms: _143  and  _144
REMARK   46  A    between atoms: _152  and  _154
REMARK   47  A    between atoms: _154  and  _155
REMARK   48  A    between atoms: _154  and  _157
REMARK   49  A    between atoms: _157  and  _158
REMARK   50  A    between atoms: _158  and  _159
REMARK   51  A    between atoms: _162  and  _164
REMARK   52  A    between atoms: _164  and  _165
REMARK   53  A    between atoms: _164  and  _167
REMARK   54  A    between atoms: _167  and  _168
REMARK   55  A    between atoms: _173  and  _175
REMARK   56  A    between atoms: _175  and  _176
REMARK   57  A    between atoms: _175  and  _178
REMARK   58  A    between atoms: _178  and  _179
REMARK   59  A    between atoms: _179  and  _180
REMARK   60  A    between atoms: _183  and  _185
REMARK   61  A    between atoms: _185  and  _186
REMARK   62  A    between atoms: _185  and  _188
REMARK   63  A    between atoms: _188  and  _189
REMARK   64  A    between atoms: _192  and  _194
REMARK   65  A    between atoms: _194  and  _195
REMARK   66  A    between atoms: _194  and  _197
REMARK   67  A    between atoms: _197  and  _198
REMARK   68  A    between atoms: _199  and  ZN_419
REMARK   69  A    between atoms: _203  and  _205
REMARK   70  A    between atoms: _205  and  _206
REMARK   71  A    between atoms: _205  and  _208
REMARK   72  A    between atoms: _208  and  _209
REMARK   73  A    between atoms: _212  and  _214
REMARK   74  A    between atoms: _214  and  _215
REMARK   75  A    between atoms: _214  and  _217
REMARK   76  A    between atoms: _220  and  _222
REMARK   77  A    between atoms: _222  and  _223
REMARK   78  A    between atoms: _222  and  _225
REMARK   79  A    between atoms: _225  and  _226
REMARK   80  A    between atoms: _231  and  _233
REMARK   81  A    between atoms: _233  and  _234
REMARK   82  A    between atoms: _233  and  _236
REMARK   83  A    between atoms: _236  and  _237
REMARK   84  A    between atoms: _243  and  _245
REMARK   85  A    between atoms: _245  and  _246
REMARK   86  A    between atoms: _245  and  _248
REMARK   87  A    between atoms: _251  and  _253
REMARK   88  A    between atoms: _253  and  _254
REMARK   89  A    between atoms: _253  and  _256
REMARK   90  A    between atoms: _256  and  _257
REMARK   91  A    between atoms: _260  and  _262
REMARK   92  A    between atoms: _262  and  _263
REMARK   93  A    between atoms: _266  and  _268
REMARK   94  A    between atoms: _268  and  _269
REMARK   95  A    between atoms: _268  and  _271
REMARK   96  A    between atoms: _274  and  _276
REMARK   97  A    between atoms: _276  and  _277
REMARK   98  A    between atoms: _276  and  _279
REMARK   99  A    between atoms: _279  and  _280
REMARK  100  A    between atoms: _283  and  _285
REMARK  101  A    between atoms: _285  and  _286
REMARK  102  A    between atoms: _288  and  _290
REMARK  103  A    between atoms: _290  and  _291
REMARK  104  A    between atoms: _293  and  _295
REMARK  105  A    between atoms: _295  and  _296
REMARK  106  A    between atoms: _295  and  _298
REMARK  107  A    between atoms: _298  and  _299
REMARK  108  A    between atoms: _301  and  _303
REMARK  109  A    between atoms: _303  and  _304
REMARK  110  A    between atoms: _303  and  _306
REMARK  111  A    between atoms: _306  and  _307
REMARK  112  A    between atoms: _310  and  _312
REMARK  113  A    between atoms: _312  and  _313
REMARK  114  A    between atoms: _312  and  _315
REMARK  115  A    between atoms: _315  and  _316
REMARK  116  A    between atoms: _319  and  _321
REMARK  117  A    between atoms: _321  and  _322
REMARK  118  A    between atoms: _321  and  _324
REMARK  119  A    between atoms: _324  and  _325
REMARK  120  A    between atoms: _329  and  _330
REMARK  121  A    between atoms: _336  and  _337
REMARK  122  A    between atoms: _342  and  _344
REMARK  123  A    between atoms: _344  and  _345
REMARK  124  A    between atoms: _344  and  _347
REMARK  125  A    between atoms: _347  and  _348
REMARK  126  A    between atoms: _351  and  _353
REMARK  127  A    between atoms: _353  and  _354
REMARK  128  A    between atoms: _353  and  _356
REMARK  129  A    between atoms: _356  and  _357
REMARK  130  A    between atoms: _360  and  _362
REMARK  131  A    between atoms: _362  and  _363
REMARK  132  A    between atoms: _362  and  _365
REMARK  133  A    between atoms: _367  and  _369
REMARK  134  A    between atoms: _369  and  _370
REMARK  135  A    between atoms: _369  and  _372
REMARK  136  A    between atoms: _375  and  _377
REMARK  137  A    between atoms: _377  and  _378
REMARK  138  A    between atoms: _377  and  _380
REMARK  139  A    between atoms: _380  and  _381
REMARK  140  A    between atoms: _391  and  _393
REMARK  141  A    between atoms: _393  and  _394
REMARK  142  A    between atoms: _393  and  _396
REMARK  143  A    between atoms: _396  and  _397
REMARK  144  A    between atoms: _402  and  _404
REMARK  145  A    between atoms: _404  and  _405
REMARK  146  A    between atoms: _404  and  _407
REMARK  147  A    between atoms: _407  and  _408
REMARK  148  A    between atoms: _408  and  _409
REMARK  149  A    between atoms: _409  and  _410
REMARK                            x       y       z     vdW  Elec       q    Type
REMARK                         _______ _______ _______ _____ _____    ______ ____
ROOT
ATOM      1  CB  ASN A   1      12.784   4.624   6.916  0.00  0.00    +0.110 C 
ENDROOT
BRANCH   1   2
ATOM      2  CG  ASN A   1      13.891   4.358   7.910  0.00  0.00    +0.221 C 
ATOM      3  OD1 ASN A   1      13.877   3.363   8.629  0.00  0.00    -0.275 OA
ATOM      4  ND2 ASN A   1      14.864   5.258   7.937  0.00  0.00    -0.329 N 
ATOM      5 HD21 ASN A   1      15.665   5.138   8.590  0.00  0.00    +0.145 HD
ATOM      6 HD22 ASN A   1      14.826   6.084   7.306  0.00  0.00    +0.145 HD
ENDBRANCH   1   2
BRANCH   1   7
ATOM      7  CA  ASN A   1      11.982   3.386   6.514  0.00  0.00    +0.142 C 
BRANCH   7   8
ATOM      8  N   ASN A   1      12.775   2.418   5.787  0.00  0.00    -0.239 NA
ATOM      9  H   ASN A   1      13.306   2.726   4.948  0.00  0.00    +0.142 HD
ENDBRANCH   7   8
BRANCH   7  10
ATOM     10  C   ASN A   1      10.784   3.839   5.677  0.00  0.00    +0.225 C 
ATOM     11  O   ASN A   1      10.936   4.341   4.567  0.00  0.00    -0.287 OA
ENDBRANCH   7  10
ENDBRANCH   1   7
TORSDOF 4
REMARK  Name = ../refined-set-2016/2q38/2q38_pocket.pdb
REMARK  149 active torsions:
REMARK  status: ('A' for Active; 'I' for Inactive)
REMARK    1  A    between atoms: _1  and  _3
REMARK    2  A    between atoms: _3  and  _4
REMARK    3  A    between atoms: _3  and  _6
REMARK    4  A    between atoms: _6  and  _7
REMARK    5  A    between atoms: _17  and  _19
REMARK    6  A    between atoms: _19  and  _20
REMARK    7  A    between atoms: _19  and  _22
REMARK    8  A    between atoms: _22  and  _23
REMARK    9  A    between atoms: _28  and  _29
REMARK   10  A    between atoms: _31  and  _33
REMARK   11  A    between atoms: _33  and  _34
REMARK   12  A    between atoms: _33  and  _36
REMARK   13  A    between atoms: _36  and  _37
REMARK   14  A    between atoms: _40  and  _41
REMARK   15  A    between atoms: _46  and  _48
REMARK   16  A    between atoms: _48  and  _49
REMARK   17  A    between atoms: _48  and  _51
REMARK   18  A    between atoms: _51  and  _52
REMARK   19  A    between atoms: _57  and  _59
REMARK   20  A    between atoms: _59  and  _60
REMARK   21  A    between atoms: _59  and  _62
REMARK   22  A    between atoms: _62  and  _63
REMARK   23  A    between atoms: _68  and  _70
REMARK   24  A    between atoms: _70  and  _71
REMARK   25  A    between atoms: _74  and  _76
REMARK   26  A    between atoms: _76  and  _77
REMARK   27  A    between atoms: _76  and  _79
REMARK   28  A    between atoms: _79  and  _80
REMARK   29  A    between atoms: _85  and  _87
REMARK   30  A    between atoms: _87  and  _88
REMARK   31  A    between atoms: _87  and  _90
REMARK   32  A    between atoms: _90  and  _91
REMARK   33  A    between atoms: _94  and  _96
REMARK   34  A    between atoms: _96  and  _97
REMARK   35  A    between atoms: _96  and  _99
REMARK   36  A    between atoms: _99  and  _100
REMARK   37  A    between atoms: _100  and  _101
REMARK   38  A    between atoms: _106  and  _108
REMARK   39  A    between atoms: _108  and  _109
REMARK   40  A    between atoms: _108  and  _111
REMARK   41  A    between atoms: _111  and  _112
REMARK   42  A    between atoms: _118  and  _120
REMARK   43  A    between atoms: _131  and  _134
REMARK   44  A    between atoms: _134  and  _135
REMARK   45  A    between atoms: _143  and  _144
REMARK   46  A    between atoms: _152  and  _154
REMARK   47  A    between atoms: _154  and  _155
REMARK   48  A    between atoms: _154  and  _157
REMARK   49  A    between atoms: _157  and  _158
REMARK   50  A    between atoms: _158  and  _159
REMARK   51  A    between atoms: _162  and  _164
REMARK   52  A    between atoms: _164  and  _165
REMARK   53  A    between atoms: _164  and  _167
REMARK   54  A    between atoms: _167  and  _168
REMARK   55  A    between atoms: _173  and  _175
REMARK   56  A    between atoms: _175  and  _176
REMARK   57  A    between atoms: _175  and  _178
REMARK   58  A    between atoms: _178  and  _179
REMARK   59  A    between atoms: _179  and  _180
REMARK   60  A    between atoms: _183  and  _185
REMARK   61  A    between atoms: _185  and  _186
REMARK   62  A    between atoms: _185  and  _188
REMARK   63  A    between atoms: _188  and  _189
REMARK   64  A    between atoms: _192  and  _194
REMARK   65  A    between atoms: _194  and  _195
REMARK   66  A    between atoms: _194  and  _197
REMARK   67  A    between atoms: _197  and  _198
REMARK   68  A    between atoms: _199  and  ZN_419
REMARK   69  A    between atoms: _203  and  _205
REMARK   70  A    between atoms: _205  and  _206
REMARK   71  A    between atoms: _205  and  _208
REMARK   72  A    between atoms: _208  and  _209
REMARK   73  A    between atoms: _212  and  _214
REMARK   74  A    between atoms: _214  and  _215
REMARK   75  A    between atoms: _214  and  _217
REMARK   76  A    between atoms: _220  and  _222
REMARK   77  A    between atoms: _222  and  _223
REMARK   78  A    between atoms: _222  and  _225
REMARK   79  A    between atoms: _225  and  _226
REMARK   80  A    between atoms: _231  and  _233
REMARK   81  A    between atoms: _233  and  _234
REMARK   82  A    between atoms: _233  and  _236
REMARK   83  A    between atoms: _236  and  _237
REMARK   84  A    between atoms: _243  and  _245
REMARK   85  A    between atoms: _245  and  _246
REMARK   86  A    between atoms: _245  and  _248
REMARK   87  A    between atoms: _251  and  _253
REMARK   88  A    between atoms: _253  and  _254
REMARK   89  A    between atoms: _253  and  _256
REMARK   90  A    between atoms: _256  and  _257
REMARK   91  A    between atoms: _260  and  _262
REMARK   92  A    between atoms: _262  and  _263
REMARK   93  A    between atoms: _266  and  _268
REMARK   94  A    between atoms: _268  and  _269
REMARK   95  A    between atoms: _268  and  _271
REMARK   96  A    between atoms: _274  and  _276
REMARK   97  A    between atoms: _276  and  _277
REMARK   98  A    between atoms: _276  and  _279
REMARK   99  A    between atoms: _279  and  _280
REMARK  100  A    between atoms: _283  and  _285
REMARK  101  A    between atoms: _285  and  _286
REMARK  102  A    between atoms: _288  and  _290
REMARK  103  A    between atoms: _290  and  _291
REMARK  104  A    between atoms: _293  and  _295
REMARK  105  A    between atoms: _295  and  _296
REMARK  106  A    between atoms: _295  and  _298
REMARK  107  A    between atoms: _298  and  _299
REMARK  108  A    between atoms: _301  and  _303
REMARK  109  A    between atoms: _303  and  _304
REMARK  110  A    between atoms: _303  and  _306
REMARK  111  A    between atoms: _306  and  _307
REMARK  112  A    between atoms: _310  and  _312
REMARK  113  A    between atoms: _312  and  _313
REMARK  114  A    between atoms: _312  and  _315
REMARK  115  A    between atoms: _315  and  _316
REMARK  116  A    between atoms: _319  and  _321
REMARK  117  A    between atoms: _321  and  _322
REMARK  118  A    between atoms: _321  and  _324
REMARK  119  A    between atoms: _324  and  _325
REMARK  120  A    between atoms: _329  and  _330
REMARK  121  A    between atoms: _336  and  _337
REMARK  122  A    between atoms: _342  and  _344
REMARK  123  A    between atoms: _344  and  _345
REMARK  124  A    between atoms: _344  and  _347
REMARK  125  A    between atoms: _347  and  _348
REMARK  126  A    between atoms: _351  and  _353
REMARK  127  A    between atoms: _353  and  _354
REMARK  128  A    between atoms: _353  and  _356
REMARK  129  A    between atoms: _356  and  _357
REMARK  130  A    between atoms: _360  and  _362
REMARK  131  A    between atoms: _362  and  _363
REMARK  132  A    between atoms: _362  and  _365
REMARK  133  A    between atoms: _367  and  _369
REMARK  134  A    between atoms: _369  and  _370
REMARK  135  A    between atoms: _369  and  _372
REMARK  136  A    between atoms: _375  and  _377
REMARK  137  A    between atoms: _377  and  _378
REMARK  138  A    between atoms: _377  and  _380
REMARK  139  A    between atoms: _380  and  _381
REMARK  140  A    between atoms: _391  and  _393
REMARK  141  A    between atoms: _393  and  _394
REMARK  142  A    between atoms: _393  and  _396
REMARK  143  A    between atoms: _396  and  _397
REMARK  144  A    between atoms: _402  and  _404
REMARK  145  A    between atoms: _404  and  _405
REMARK  146  A    between atoms: _404  and  _407
REMARK  147  A    between atoms: _407  and  _408
REMARK  148  A    between atoms: _408  and  _409
REMARK  149  A    between atoms: _409  and  _410
REMARK                            x       y       z     vdW  Elec       q    Type
REMARK                         _______ _______ _______ _____ _____    ______ ____
ROOT
ATOM      1  C   UNK A   4      10.855   0.522  10.354  0.00  0.00    +0.000 C 
ATOM      2  C   UNK A   4      10.747  -0.784  11.143  0.00  0.00    +0.000 C 
ATOM      3  O   UNK A   4      10.103  -0.832  12.185  0.00  0.00    +0.000 OA
ATOM      4  N   VAL A   5      11.388  -1.809  10.603  0.00  0.00    +0.000 N 
ATOM      5  CA  VAL A   5      11.473  -3.099  11.262  0.00  0.00    +0.000 C 
ATOM      6  C   VAL A   5      12.926  -3.521  11.461  0.00  0.00    +0.000 C 
ATOM      7  N   UNK A   6      13.078  -4.434  12.406  0.00  0.00    +0.000 N 
ATOM      8  H   UNK A   6      12.280  -4.572  13.058  0.00  0.00    +0.000 HD
ATOM      9  C   UNK A   6      14.248  -5.260  12.621  0.00  0.00    +0.000 C 
ATOM     10  C   UNK A   6      14.939  -4.993  13.954  0.00  0.00    +0.000 C 
ATOM     11  C   UNK A   6      15.171  -3.549  14.265  0.00  0.00    +0.000 A 
ATOM     12  C   UNK A   6      14.354  -2.591  14.758  0.00  0.00    +0.000 A 
ATOM     13  N   UNK A   6      15.074  -1.423  14.853  0.00  0.00    +0.000 N 
ATOM     14 ZN   UNK A   6      14.352   0.373  15.348  0.00  0.00    +0.000 Zn
ATOM     15  N   UNK A   4      13.707   1.002  13.829  0.00  0.00    +0.000 N 
ATOM     16  C   UNK A   4      13.131   2.198  13.786  0.00  0.00    +0.000 A 
ATOM     17  N   UNK A   4      12.608   2.297  12.610  0.00  0.00    +0.000 NA
ATOM     18  C   UNK A   4      12.806   1.198  11.825  0.00  0.00    +0.000 A 
ATOM     19  C   UNK A   4      13.508   0.361  12.631  0.00  0.00    +0.000 A 
ATOM     20  C   UNK A   6      16.303  -1.664  14.427  0.00  0.00    +0.000 A 
ATOM     21  N   UNK A   6      16.386  -2.937  14.070  0.00  0.00    +0.000 NA
ATOM     22  O   VAL A   5      13.831  -3.050  10.792  0.00  0.00    +0.000 OA
ATOM     23  H   VAL A   5      11.845  -1.686   9.677  0.00  0.00    +0.000 HD
ATOM     24  C   UNK A   4      12.297   1.033  10.427  0.00  0.00    +0.000 C 
ENDROOT
BRANCH  14  25
ATOM     25  N   UNK A   6      12.909  -0.339  16.735  0.00  0.00    +0.000 N 
ATOM     26  C   UNK A   6      13.199  -1.254  17.638  0.00  0.00    +0.000 A 
ATOM     27  N   UNK A   6      12.072  -1.691  18.177  0.00  0.00    +0.000 NA
ATOM     28  C   UNK A   6      11.038  -1.020  17.583  0.00  0.00    +0.000 A 
ATOM     29  C   UNK A   6      11.556  -0.168  16.665  0.00  0.00    +0.000 A 
BRANCH  29  30
ATOM     30  C   UNK A   6      10.885   0.798  15.739  0.00  0.00    +0.000 C 
BRANCH  30  31
ATOM     31  C   UNK A   6       9.380   0.539  15.611  0.00  0.00    +0.000 C 
BRANCH  31  32
ATOM     32  C   UNK A   6       8.702   1.716  14.907  0.00  0.00    +0.000 C 
ATOM     33  N   UNK A   4       7.694   2.251  15.578  0.00  0.00    +0.000 N 
ATOM     34  H   UNK A   4       7.361   1.770  16.437  0.00  0.00    +0.000 HD
ATOM     35  O   UNK A   6       9.049   2.131  13.795  0.00  0.00    +0.000 OA
BRANCH  33  36
ATOM     36  C   UNK A   4       7.026   3.487  15.169  0.00  0.00    +0.000 C 
BRANCH  36  37
ATOM     37  C   UNK A   4       7.632   4.668  15.917  0.00  0.00    +0.000 C 
ATOM     38  O   UNK A   4       7.484   4.820  17.127  0.00  0.00    +0.000 OA
ATOM     39  N   VAL A   5       8.347   5.515  15.192  0.00  0.00    +0.000 N 
ATOM     40  H   VAL A   5       8.332   5.428  14.156  0.00  0.00    +0.000 HD
BRANCH  39  41
ATOM     41  CA  VAL A   5       9.155   6.566  15.799  0.00  0.00    +0.000 C 
BRANCH  41  42
ATOM     42  C   VAL A   5       8.444   7.912  15.793  0.00  0.00    +0.000 C 
ATOM     43  N   UNK A   6       8.338   8.532  16.954  0.00  0.00    +0.000 N 
ATOM     44  H   UNK A   6       8.723   8.054  17.794  0.00  0.00    +0.000 HD
ATOM     45  O   VAL A   5       8.006   8.379  14.737  0.00  0.00    +0.000 OA
BRANCH  43  46
ATOM     46  C   UNK A   6       7.724   9.831  17.142  0.00  0.00    +0.000 C 
BRANCH  46  47
ATOM     47  C   UNK A   6       8.628  10.818  17.872  0.00  0.00    +0.000 C 
ATOM     48  O   UNK A   6       9.387  10.418  18.756  0.00  0.00    +0.000 OA
ENDBRANCH  46  47
BRANCH  46  49
ATOM     49  C   UNK A   6       6.430   9.716  17.971  0.00  0.00    +0.000 C 
BRANCH  49  50
ATOM     50  C   UNK A   6       5.551   8.586  17.557  0.00  0.00    +0.000 A 
ATOM     51  N   UNK A   6       5.836   7.264  17.810  0.00  0.00    +0.000 NA
ATOM     52  C   UNK A   6       4.872   6.509  17.318  0.00  0.00    +0.000 A 
ATOM     53  N   UNK A   6       3.962   7.291  16.757  0.00  0.00    +0.000 NA
ATOM     54  C   UNK A   6       4.373   8.596  16.900  0.00  0.00    +0.000 A 
ENDBRANCH  49  50
ENDBRANCH  46  49
ENDBRANCH  43  46
ENDBRANCH  41  42
BRANCH  41  55
ATOM     55  CB  VAL A   5      10.509   6.647  15.061  0.00  0.00    +0.000 C 
ATOM     56  CG2 VAL A   5      11.453   7.666  15.680  0.00  0.00    +0.000 C 
ATOM     57  CG1 VAL A   5      11.162   5.272  15.031  0.00  0.00    +0.000 C 
ENDBRANCH  41  55
ENDBRANCH  39  41
ENDBRANCH  36  37
BRANCH  36  58
ATOM     58  C   UNK A   4       5.525   3.353  15.404  0.00  0.00    +0.000 C 
BRANCH  58  59
ATOM     59  C   UNK A   4       4.878   2.261  14.534  0.00  0.00    +0.000 C 
ATOM     60  C   UNK A   4       3.937   1.386  15.349  0.00  0.00    +0.000 C 
ATOM     61  C   UNK A   4       4.142   2.904  13.372  0.00  0.00    +0.000 C 
ENDBRANCH  58  59
ENDBRANCH  36  58
ENDBRANCH  33  36
ENDBRANCH  31  32
BRANCH  31  62
ATOM     62  N   UNK A   6       9.124  -0.716  14.933  0.00  0.00    +0.000 N 
ATOM     63  C   LEU A   2       8.414  -1.728  15.394  0.00  0.00    +0.000 C 
ATOM     64  O   LEU A   2       7.939  -1.784  16.530  0.00  0.00    +0.000 OA
ATOM     65  H   UNK A   6       9.542  -0.830  13.988  0.00  0.00    +0.000 HD
BRANCH  63  66
ATOM     66  CA  LEU A   2       8.191  -2.884  14.419  0.00  0.00    +0.000 C 
BRANCH  66  67
ATOM     67  N   LEU A   2       8.581  -4.145  15.046  0.00  0.00    +0.000 N 
ATOM     68  H   LEU A   2       7.875  -4.630  15.635  0.00  0.00    +0.000 HD
ATOM     69  C   GLU A   1       9.765  -4.711  14.918  0.00  0.00    +0.000 C 
ATOM     70  O   GLU A   1      10.670  -4.288  14.212  0.00  0.00    +0.000 OA
BRANCH  69  71
ATOM     71  CA  GLU A   1       9.963  -5.995  15.720  0.00  0.00    +0.000 C 
BRANCH  71  72
ATOM     72  N   GLU A   1      10.480  -7.052  14.858  0.00  0.00    +0.000 NA
ATOM     73  H   GLU A   1      11.145  -6.811  14.096  0.00  0.00    +0.000 HD
ENDBRANCH  71  72
BRANCH  71  74
ATOM     74  CB  GLU A   1      10.902  -5.758  16.898  0.00  0.00    +0.000 C 
BRANCH  74  75
ATOM     75  CG  GLU A   1      10.377  -4.810  17.972  0.00  0.00    +0.000 C 
BRANCH  75  76
ATOM     76  CD  GLU A   1      11.340  -4.729  19.141  0.00  0.00    +0.000 C 
ATOM     77  OE2 GLU A   1      11.558  -3.631  19.677  0.00  0.00    +0.000 OA
ATOM     78  OE1 GLU A   1      11.879  -5.785  19.518  0.00  0.00    +0.000 OA
ENDBRANCH  75  76
ENDBRANCH  74  75
ENDBRANCH  71  74
ENDBRANCH  69  71
ENDBRANCH  66  67
BRANCH  66  79
ATOM     79  CB  LEU A   2       6.738  -2.984  13.975  0.00  0.00    +0.000 C 
BRANCH  79  80
ATOM     80  CG  LEU A   2       5.955  -1.765  13.519  0.00  0.00    +0.000 C 
ATOM     81  CD2 LEU A   2       4.507  -2.132  13.206  0.00  0.00    +0.000 C 
ATOM     82  CD1 LEU A   2       6.596  -1.135  12.300  0.00  0.00    +0.000 C 
ENDBRANCH  79  80
ENDBRANCH  66  79
ENDBRANCH  63  66
ENDBRANCH  31  62
ENDBRANCH  30  31
ENDBRANCH  29  30
ENDBRANCH  14  25
BRANCH   1  84
ATOM     83  C   UNK A   3       9.462   2.536  10.222  0.00  0.00    +0.000 C 
ATOM     84  N   UNK A   4       9.915   1.496  10.881  0.00  0.00    +0.000 N 
ATOM     85  H   UNK A   4       9.575   1.359  11.854  0.00  0.00    +0.000 HD
ATOM     86  O   UNK A   3       9.730   2.811   9.056  0.00  0.00    +0.000 OA
BRANCH  83  87
ATOM     87  C   UNK A   3       8.511   3.410  11.049  0.00  0.00    +0.000 C 
BRANCH  87  90
ATOM     88  C   LEU A   2       8.586   5.850  11.139  0.00  0.00    +0.000 C 
ATOM     89  O   LEU A   2       8.459   5.870  12.370  0.00  0.00    +0.000 OA
ATOM     90  N   UNK A   3       8.482   4.728  10.439  0.00  0.00    +0.000 N 
ATOM     91  H   UNK A   3       8.375   4.795   9.407  0.00  0.00    +0.000 HD
BRANCH  88  92
ATOM     92  CA  LEU A   2       8.803   7.144  10.378  0.00  0.00    +0.000 C 
BRANCH  92  94
ATOM     93  C   GLU A   1       8.339   9.462  10.668  0.00  0.00    +0.000 C 
ATOM     94  N   LEU A   2       8.548   8.289  11.252  0.00  0.00    +0.000 N 
ATOM     95  H   LEU A   2       8.531   8.188  12.287  0.00  0.00    +0.000 HD
ATOM     96  O   GLU A   1       8.361   9.560   9.443  0.00  0.00    +0.000 OA
BRANCH  93  97
ATOM     97  CA  GLU A   1       8.047  10.650  11.572  0.00  0.00    +0.000 C 
BRANCH  97  98
ATOM     98  N   GLU A   1       7.170  10.243  12.654  0.00  0.00    +0.000 NA
ATOM     99  H   GLU A   1       7.527   9.587  13.378  0.00  0.00    +0.000 HD
ENDBRANCH  97  98
BRANCH  97 100
ATOM    100  CB  GLU A   1       9.353  11.269  12.107  0.00  0.00    +0.000 C 
ATOM    101  CG2 GLU A   1      10.037  10.359  13.100  0.00  0.00    +0.000 C 
BRANCH 100 102
ATOM    102  CG1 GLU A   1      10.320  11.697  10.997  0.00  0.00    +0.000 C 
ATOM    103  CD1 GLU A   1      11.355  12.700  11.487  0.00  0.00    +0.000 C 
ENDBRANCH 100 102
ENDBRANCH  97 100
ENDBRANCH  93  97
ENDBRANCH  92  94
BRANCH  92 104
ATOM    104  CB  LEU A   2      10.207   7.337   9.775  0.00  0.00    +0.000 C 
BRANCH 104 105
ATOM    105  CG  LEU A   2      11.299   7.313  10.839  0.00  0.00    +0.000 C 
BRANCH 105 106
ATOM    106  CD  LEU A   2      12.012   5.997  11.019  0.00  0.00    +0.000 C 
ATOM    107  OE1 LEU A   2      13.146   5.973  11.513  0.00  0.00    +0.000 OA
ATOM    108  NE2 LEU A   2      11.377   4.892  10.625  0.00  0.00    +0.000 N 
ATOM    109 HE21 LEU A   2      11.835   3.964  10.728  0.00  0.00    +0.000 HD
ATOM    110 HE22 LEU A   2      10.424   4.958  10.215  0.00  0.00    +0.000 HD
ENDBRANCH 105 106
ENDBRANCH 104 105
ENDBRANCH  92 104
ENDBRANCH  88  92
ENDBRANCH  87  90
BRANCH  87 111
ATOM    111  C   UNK A   3       7.174   2.717  11.217  0.00  0.00    +0.000 C 
BRANCH 111 112
ATOM    112  C   UNK A   3       6.364   2.264  10.021  0.00  0.00    +0.000 A 
ATOM    113  C   UNK A   3       5.283   3.014   9.591  0.00  0.00    +0.000 A 
ATOM    114  C   UNK A   3       4.530   2.611   8.500  0.00  0.00    +0.000 A 
ATOM    115  C   UNK A   3       4.836   1.452   7.820  0.00  0.00    +0.000 A 
ATOM    116  C   UNK A   3       5.902   0.684   8.243  0.00  0.00    +0.000 A 
ATOM    117  C   UNK A   3       6.643   1.105   9.325  0.00  0.00    +0.000 A 
ENDBRANCH 111 112
ENDBRANCH  87 111
ENDBRANCH  83  87
ENDBRANCH   1  84
BRANCH   9 118
ATOM    118  C   UNK A   6      13.790  -6.718  12.540  0.00  0.00    +0.000 C 
ATOM    119  O   UNK A   6      12.761  -7.086  13.112  0.00  0.00    +0.000 OA
ENDBRANCH   9 118
BRANCH   5 120
ATOM    120  CB  VAL A   5      10.760  -4.196  10.470  0.00  0.00    +0.000 C 
BRANCH 120 121
ATOM    121  CG  VAL A   5       9.300  -3.936  10.153  0.00  0.00    +0.000 A 
ATOM    122  CD2 VAL A   5       8.292  -4.577  10.853  0.00  0.00    +0.000 A 
ATOM    123  CE2 VAL A   5       6.966  -4.364  10.566  0.00  0.00    +0.000 A 
ATOM    124  CZ  VAL A   5       6.615  -3.475   9.556  0.00  0.00    +0.000 A 
ATOM    125  CE1 VAL A   5       7.615  -2.817   8.851  0.00  0.00    +0.000 A 
ATOM    126  CD1 VAL A   5       8.943  -3.048   9.147  0.00  0.00    +0.000 A 
ENDBRANCH 120 121
ENDBRANCH   5 120
TORSDOF 42
REMARK  Name = ../refined-set-2016/2q38/2q38_pocket.pdb
REMARK  149 active torsions:
REMARK  status: ('A' for Active; 'I' for Inactive)
REMARK    1  A    between atoms: _1  and  _3
REMARK    2  A    between atoms: _3  and  _4
REMARK    3  A    between atoms: _3  and  _6
REMARK    4  A    between atoms: _6  and  _7
REMARK    5  A    between atoms: _17  and  _19
REMARK    6  A    between atoms: _19  and  _20
REMARK    7  A    between atoms: _19  and  _22
REMARK    8  A    between atoms: _22  and  _23
REMARK    9  A    between atoms: _28  and  _29
REMARK   10  A    between atoms: _31  and  _33
REMARK   11  A    between atoms: _33  and  _34
REMARK   12  A    between atoms: _33  and  _36
REMARK   13  A    between atoms: _36  and  _37
REMARK   14  A    between atoms: _40  and  _41
REMARK   15  A    between atoms: _46  and  _48
REMARK   16  A    between atoms: _48  and  _49
REMARK   17  A    between atoms: _48  and  _51
REMARK   18  A    between atoms: _51  and  _52
REMARK   19  A    between atoms: _57  and  _59
REMARK   20  A    between atoms: _59  and  _60
REMARK   21  A    between atoms: _59  and  _62
REMARK   22  A    between atoms: _62  and  _63
REMARK   23  A    between atoms: _68  and  _70
REMARK   24  A    between atoms: _70  and  _71
REMARK   25  A    between atoms: _74  and  _76
REMARK   26  A    between atoms: _76  and  _77
REMARK   27  A    between atoms: _76  and  _79
REMARK   28  A    between atoms: _79  and  _80
REMARK   29  A    between atoms: _85  and  _87
REMARK   30  A    between atoms: _87  and  _88
REMARK   31  A    between atoms: _87  and  _90
REMARK   32  A    between atoms: _90  and  _91
REMARK   33  A    between atoms: _94  and  _96
REMARK   34  A    between atoms: _96  and  _97
REMARK   35  A    between atoms: _96  and  _99
REMARK   36  A    between atoms: _99  and  _100
REMARK   37  A    between atoms: _100  and  _101
REMARK   38  A    between atoms: _106  and  _108
REMARK   39  A    between atoms: _108  and  _109
REMARK   40  A    between atoms: _108  and  _111
REMARK   41  A    between atoms: _111  and  _112
REMARK   42  A    between atoms: _118  and  _120
REMARK   43  A    between atoms: _131  and  _134
REMARK   44  A    between atoms: _134  and  _135
REMARK   45  A    between atoms: _143  and  _144
REMARK   46  A    between atoms: _152  and  _154
REMARK   47  A    between atoms: _154  and  _155
REMARK   48  A    between atoms: _154  and  _157
REMARK   49  A    between atoms: _157  and  _158
REMARK   50  A    between atoms: _158  and  _159
REMARK   51  A    between atoms: _162  and  _164
REMARK   52  A    between atoms: _164  and  _165
REMARK   53  A    between atoms: _164  and  _167
REMARK   54  A    between atoms: _167  and  _168
REMARK   55  A    between atoms: _173  and  _175
REMARK   56  A    between atoms: _175  and  _176
REMARK   57  A    between atoms: _175  and  _178
REMARK   58  A    between atoms: _178  and  _179
REMARK   59  A    between atoms: _179  and  _180
REMARK   60  A    between atoms: _183  and  _185
REMARK   61  A    between atoms: _185  and  _186
REMARK   62  A    between atoms: _185  and  _188
REMARK   63  A    between atoms: _188  and  _189
REMARK   64  A    between atoms: _192  and  _194
REMARK   65  A    between atoms: _194  and  _195
REMARK   66  A    between atoms: _194  and  _197
REMARK   67  A    between atoms: _197  and  _198
REMARK   68  A    between atoms: _199  and  ZN_419
REMARK   69  A    between atoms: _203  and  _205
REMARK   70  A    between atoms: _205  and  _206
REMARK   71  A    between atoms: _205  and  _208
REMARK   72  A    between atoms: _208  and  _209
REMARK   73  A    between atoms: _212  and  _214
REMARK   74  A    between atoms: _214  and  _215
REMARK   75  A    between atoms: _214  and  _217
REMARK   76  A    between atoms: _220  and  _222
REMARK   77  A    between atoms: _222  and  _223
REMARK   78  A    between atoms: _222  and  _225
REMARK   79  A    between atoms: _225  and  _226
REMARK   80  A    between atoms: _231  and  _233
REMARK   81  A    between atoms: _233  and  _234
REMARK   82  A    between atoms: _233  and  _236
REMARK   83  A    between atoms: _236  and  _237
REMARK   84  A    between atoms: _243  and  _245
REMARK   85  A    between atoms: _245  and  _246
REMARK   86  A    between atoms: _245  and  _248
REMARK   87  A    between atoms: _251  and  _253
REMARK   88  A    between atoms: _253  and  _254
REMARK   89  A    between atoms: _253  and  _256
REMARK   90  A    between atoms: _256  and  _257
REMARK   91  A    between atoms: _260  and  _262
REMARK   92  A    between atoms: _262  and  _263
REMARK   93  A    between atoms: _266  and  _268
REMARK   94  A    between atoms: _268  and  _269
REMARK   95  A    between atoms: _268  and  _271
REMARK   96  A    between atoms: _274  and  _276
REMARK   97  A    between atoms: _276  and  _277
REMARK   98  A    between atoms: _276  and  _279
REMARK   99  A    between atoms: _279  and  _280
REMARK  100  A    between atoms: _283  and  _285
REMARK  101  A    between atoms: _285  and  _286
REMARK  102  A    between atoms: _288  and  _290
REMARK  103  A    between atoms: _290  and  _291
REMARK  104  A    between atoms: _293  and  _295
REMARK  105  A    between atoms: _295  and  _296
REMARK  106  A    between atoms: _295  and  _298
REMARK  107  A    between atoms: _298  and  _299
REMARK  108  A    between atoms: _301  and  _303
REMARK  109  A    between atoms: _303  and  _304
REMARK  110  A    between atoms: _303  and  _306
REMARK  111  A    between atoms: _306  and  _307
REMARK  112  A    between atoms: _310  and  _312
REMARK  113  A    between atoms: _312  and  _313
REMARK  114  A    between atoms: _312  and  _315
REMARK  115  A    between atoms: _315  and  _316
REMARK  116  A    between atoms: _319  and  _321
REMARK  117  A    between atoms: _321  and  _322
REMARK  118  A    between atoms: _321  and  _324
REMARK  119  A    between atoms: _324  and  _325
REMARK  120  A    between atoms: _329  and  _330
REMARK  121  A    between atoms: _336  and  _337
REMARK  122  A    between atoms: _342  and  _344
REMARK  123  A    between atoms: _344  and  _345
REMARK  124  A    between atoms: _344  and  _347
REMARK  125  A    between atoms: _347  and  _348
REMARK  126  A    between atoms: _351  and  _353
REMARK  127  A    between atoms: _353  and  _354
REMARK  128  A    between atoms: _353  and  _356
REMARK  129  A    between atoms: _356  and  _357
REMARK  130  A    between atoms: _360  and  _362
REMARK  131  A    between atoms: _362  and  _363
REMARK  132  A    between atoms: _362  and  _365
REMARK  133  A    between atoms: _367  and  _369
REMARK  134  A    between atoms: _369  and  _370
REMARK  135  A    between atoms: _369  and  _372
REMARK  136  A    between atoms: _375  and  _377
REMARK  137  A    between atoms: _377  and  _378
REMARK  138  A    between atoms: _377  and  _380
REMARK  139  A    between atoms: _380  and  _381
REMARK  140  A    between atoms: _391  and  _393
REMARK  141  A    between atoms: _393  and  _394
REMARK  142  A    between atoms: _393  and  _396
REMARK  143  A    between atoms: _396  and  _397
REMARK  144  A    between atoms: _402  and  _404
REMARK  145  A    between atoms: _404  and  _405
REMARK  146  A    between atoms: _404  and  _407
REMARK  147  A    between atoms: _407  and  _408
REMARK  148  A    between atoms: _408  and  _409
REMARK  149  A    between atoms: _409  and  _410
REMARK                            x       y       z     vdW  Elec       q    Type
REMARK                         _______ _______ _______ _____ _____    ______ ____
ROOT
ATOM      1  C   GLU A   1      15.102  -6.553  21.104  0.00  0.00    +0.238 C 
ATOM      2  O   GLU A   1      15.880  -7.125  21.862  0.00  0.00    -0.274 OA
ATOM      3  N   HIS A   2      13.922  -6.073  21.490  0.00  0.00    -0.298 N 
ATOM      4  H   HIS A   2      13.362  -5.479  20.845  0.00  0.00    +0.150 HD
ENDROOT
BRANCH   1   5
ATOM      5  CA  GLU A   1      15.448  -6.410  19.624  0.00  0.00    +0.145 C 
BRANCH   5   6
ATOM      6  N   GLU A   1      14.432  -7.083  18.829  0.00  0.00    -0.238 NA
ATOM      7  H   GLU A   1      13.567  -6.556  18.595  0.00  0.00    +0.142 HD
ENDBRANCH   5   6
BRANCH   5   8
ATOM      8  CB  GLU A   1      15.570  -4.955  19.177  0.00  0.00    +0.038 C 
BRANCH   8   9
ATOM      9  CG  GLU A   1      15.959  -4.818  17.717  0.00  0.00    +0.116 C 
BRANCH   9  10
ATOM     10  CD  GLU A   1      16.659  -3.516  17.398  0.00  0.00    +0.365 C 
ATOM     11  OE2 GLU A   1      16.043  -2.451  17.611  0.00  0.00    -0.246 OA
ATOM     12  OE1 GLU A   1      17.825  -3.575  16.936  0.00  0.00    -0.246 OA
ENDBRANCH   9  10
ENDBRANCH   8   9
ENDBRANCH   5   8
ENDBRANCH   1   5
BRANCH   3  13
ATOM     13  CA  HIS A   2      13.418  -6.386  22.827  0.00  0.00    +0.143 C 
BRANCH  13  14
ATOM     14  C   HIS A   2      13.093  -7.871  22.906  0.00  0.00    +0.227 C 
ATOM     15  O   HIS A   2      12.682  -8.461  21.906  0.00  0.00    -0.286 OA
ENDBRANCH  13  14
BRANCH  13  16
ATOM     16  CB  HIS A   2      12.191  -5.540  23.187  0.00  0.00    +0.075 C 
BRANCH  16  17
ATOM     17  CG  HIS A   2      12.558  -4.088  23.308  0.00  0.00    +0.082 A 
ATOM     18  CD2 HIS A   2      13.012  -3.360  24.352  0.00  0.00    +0.115 A 
ATOM     19  NE2 HIS A   2      13.202  -2.072  23.908  0.00  0.00    -0.221 NA
ATOM     20  CE1 HIS A   2      12.886  -2.008  22.627  0.00  0.00    +0.199 A 
ATOM     21  ND1 HIS A   2      12.496  -3.215  22.243  0.00  0.00    -0.227 NA
ENDBRANCH  16  17
ENDBRANCH  13  16
ENDBRANCH   3  13
TORSDOF 9
REMARK  Name = ../refined-set-2016/2q38/2q38_pocket.pdb
REMARK  149 active torsions:
REMARK  status: ('A' for Active; 'I' for Inactive)
REMARK    1  A    between atoms: _1  and  _3
REMARK    2  A    between atoms: _3  and  _4
REMARK    3  A    between atoms: _3  and  _6
REMARK    4  A    between atoms: _6  and  _7
REMARK    5  A    between atoms: _17  and  _19
REMARK    6  A    between atoms: _19  and  _20
REMARK    7  A    between atoms: _19  and  _22
REMARK    8  A    between atoms: _22  and  _23
REMARK    9  A    between atoms: _28  and  _29
REMARK   10  A    between atoms: _31  and  _33
REMARK   11  A    between atoms: _33  and  _34
REMARK   12  A    between atoms: _33  and  _36
REMARK   13  A    between atoms: _36  and  _37
REMARK   14  A    between atoms: _40  and  _41
REMARK   15  A    between atoms: _46  and  _48
REMARK   16  A    between atoms: _48  and  _49
REMARK   17  A    between atoms: _48  and  _51
REMARK   18  A    between atoms: _51  and  _52
REMARK   19  A    between atoms: _57  and  _59
REMARK   20  A    between atoms: _59  and  _60
REMARK   21  A    between atoms: _59  and  _62
REMARK   22  A    between atoms: _62  and  _63
REMARK   23  A    between atoms: _68  and  _70
REMARK   24  A    between atoms: _70  and  _71
REMARK   25  A    between atoms: _74  and  _76
REMARK   26  A    between atoms: _76  and  _77
REMARK   27  A    between atoms: _76  and  _79
REMARK   28  A    between atoms: _79  and  _80
REMARK   29  A    between atoms: _85  and  _87
REMARK   30  A    between atoms: _87  and  _88
REMARK   31  A    between atoms: _87  and  _90
REMARK   32  A    between atoms: _90  and  _91
REMARK   33  A    between atoms: _94  and  _96
REMARK   34  A    between atoms: _96  and  _97
REMARK   35  A    between atoms: _96  and  _99
REMARK   36  A    between atoms: _99  and  _100
REMARK   37  A    between atoms: _100  and  _101
REMARK   38  A    between atoms: _106  and  _108
REMARK   39  A    between atoms: _108  and  _109
REMARK   40  A    between atoms: _108  and  _111
REMARK   41  A    between atoms: _111  and  _112
REMARK   42  A    between atoms: _118  and  _120
REMARK   43  A    between atoms: _131  and  _134
REMARK   44  A    between atoms: _134  and  _135
REMARK   45  A    between atoms: _143  and  _144
REMARK   46  A    between atoms: _152  and  _154
REMARK   47  A    between atoms: _154  and  _155
REMARK   48  A    between atoms: _154  and  _157
REMARK   49  A    between atoms: _157  and  _158
REMARK   50  A    between atoms: _158  and  _159
REMARK   51  A    between atoms: _162  and  _164
REMARK   52  A    between atoms: _164  and  _165
REMARK   53  A    between atoms: _164  and  _167
REMARK   54  A    between atoms: _167  and  _168
REMARK   55  A    between atoms: _173  and  _175
REMARK   56  A    between atoms: _175  and  _176
REMARK   57  A    between atoms: _175  and  _178
REMARK   58  A    between atoms: _178  and  _179
REMARK   59  A    between atoms: _179  and  _180
REMARK   60  A    between atoms: _183  and  _185
REMARK   61  A    between atoms: _185  and  _186
REMARK   62  A    between atoms: _185  and  _188
REMARK   63  A    between atoms: _188  and  _189
REMARK   64  A    between atoms: _192  and  _194
REMARK   65  A    between atoms: _194  and  _195
REMARK   66  A    between atoms: _194  and  _197
REMARK   67  A    between atoms: _197  and  _198
REMARK   68  A    between atoms: _199  and  ZN_419
REMARK   69  A    between atoms: _203  and  _205
REMARK   70  A    between atoms: _205  and  _206
REMARK   71  A    between atoms: _205  and  _208
REMARK   72  A    between atoms: _208  and  _209
REMARK   73  A    between atoms: _212  and  _214
REMARK   74  A    between atoms: _214  and  _215
REMARK   75  A    between atoms: _214  and  _217
REMARK   76  A    between atoms: _220  and  _222
REMARK   77  A    between atoms: _222  and  _223
REMARK   78  A    between atoms: _222  and  _225
REMARK   79  A    between atoms: _225  and  _226
REMARK   80  A    between atoms: _231  and  _233
REMARK   81  A    between atoms: _233  and  _234
REMARK   82  A    between atoms: _233  and  _236
REMARK   83  A    between atoms: _236  and  _237
REMARK   84  A    between atoms: _243  and  _245
REMARK   85  A    between atoms: _245  and  _246
REMARK   86  A    between atoms: _245  and  _248
REMARK   87  A    between atoms: _251  and  _253
REMARK   88  A    between atoms: _253  and  _254
REMARK   89  A    between atoms: _253  and  _256
REMARK   90  A    between atoms: _256  and  _257
REMARK   91  A    between atoms: _260  and  _262
REMARK   92  A    between atoms: _262  and  _263
REMARK   93  A    between atoms: _266  and  _268
REMARK   94  A    between atoms: _268  and  _269
REMARK   95  A    between atoms: _268  and  _271
REMARK   96  A    between atoms: _274  and  _276
REMARK   97  A    between atoms: _276  and  _277
REMARK   98  A    between atoms: _276  and  _279
REMARK   99  A    between atoms: _279  and  _280
REMARK  100  A    between atoms: _283  and  _285
REMARK  101  A    between atoms: _285  and  _286
REMARK  102  A    between atoms: _288  and  _290
REMARK  103  A    between atoms: _290  and  _291
REMARK  104  A    between atoms: _293  and  _295
REMARK  105  A    between atoms: _295  and  _296
REMARK  106  A    between atoms: _295  and  _298
REMARK  107  A    between atoms: _298  and  _299
REMARK  108  A    between atoms: _301  and  _303
REMARK  109  A    between atoms: _303  and  _304
REMARK  110  A    between atoms: _303  and  _306
REMARK  111  A    between atoms: _306  and  _307
REMARK  112  A    between atoms: _310  and  _312
REMARK  113  A    between atoms: _312  and  _313
REMARK  114  A    between atoms: _312  and  _315
REMARK  115  A    between atoms: _315  and  _316
REMARK  116  A    between atoms: _319  and  _321
REMARK  117  A    between atoms: _321  and  _322
REMARK  118  A    between atoms: _321  and  _324
REMARK  119  A    between atoms: _324  and  _325
REMARK  120  A    between atoms: _329  and  _330
REMARK  121  A    between atoms: _336  and  _337
REMARK  122  A    between atoms: _342  and  _344
REMARK  123  A    between atoms: _344  and  _345
REMARK  124  A    between atoms: _344  and  _347
REMARK  125  A    between atoms: _347  and  _348
REMARK  126  A    between atoms: _351  and  _353
REMARK  127  A    between atoms: _353  and  _354
REMARK  128  A    between atoms: _353  and  _356
REMARK  129  A    between atoms: _356  and  _357
REMARK  130  A    between atoms: _360  and  _362
REMARK  131  A    between atoms: _362  and  _363
REMARK  132  A    between atoms: _362  and  _365
REMARK  133  A    between atoms: _367  and  _369
REMARK  134  A    between atoms: _369  and  _370
REMARK  135  A    between atoms: _369  and  _372
REMARK  136  A    between atoms: _375  and  _377
REMARK  137  A    between atoms: _377  and  _378
REMARK  138  A    between atoms: _377  and  _380
REMARK  139  A    between atoms: _380  and  _381
REMARK  140  A    between atoms: _391  and  _393
REMARK  141  A    between atoms: _393  and  _394
REMARK  142  A    between atoms: _393  and  _396
REMARK  143  A    between atoms: _396  and  _397
REMARK  144  A    between atoms: _402  and  _404
REMARK  145  A    between atoms: _404  and  _405
REMARK  146  A    between atoms: _404  and  _407
REMARK  147  A    between atoms: _407  and  _408
REMARK  148  A    between atoms: _408  and  _409
REMARK  149  A    between atoms: _409  and  _410
REMARK                            x       y       z     vdW  Elec       q    Type
REMARK                         _______ _______ _______ _____ _____    ______ ____
ROOT
ATOM      1  CB  PHE A   1      13.502  14.780  13.859  0.00  0.00    +0.051 C 
ENDROOT
BRANCH   1   2
ATOM      2  CG  PHE A   1      14.137  13.453  14.269  0.00  0.00    -0.020 A 
ATOM      3  CD2 PHE A   1      13.354  12.477  14.857  0.00  0.00    -0.004 A 
ATOM      4  CE2 PHE A   1      13.898  11.263  15.238  0.00  0.00    -0.000 A 
ATOM      5  CZ  PHE A   1      15.239  11.012  15.023  0.00  0.00    -0.000 A 
ATOM      6  CE1 PHE A   1      16.033  11.984  14.443  0.00  0.00    -0.000 A 
ATOM      7  CD1 PHE A   1      15.478  13.195  14.065  0.00  0.00    -0.004 A 
ENDBRANCH   1   2
BRANCH   1   8
ATOM      8  CA  PHE A   1      13.357  15.718  15.072  0.00  0.00    +0.137 C 
BRANCH   8   9
ATOM      9  N   PHE A   1      12.659  16.938  14.689  0.00  0.00    -0.239 NA
ATOM     10  H   PHE A   1      12.317  17.052  13.713  0.00  0.00    +0.142 HD
ENDBRANCH   8   9
BRANCH   8  11
ATOM     11  C   PHE A   1      14.748  15.997  15.632  0.00  0.00    +0.224 C 
ATOM     12  O   PHE A   1      15.141  15.495  16.679  0.00  0.00    -0.287 OA
ENDBRANCH   8  11
ENDBRANCH   1   8
TORSDOF 4
REMARK  Name = ../refined-set-2016/2q38/2q38_pocket.pdb
REMARK  149 active torsions:
REMARK  status: ('A' for Active; 'I' for Inactive)
REMARK    1  A    between atoms: _1  and  _3
REMARK    2  A    between atoms: _3  and  _4
REMARK    3  A    between atoms: _3  and  _6
REMARK    4  A    between atoms: _6  and  _7
REMARK    5  A    between atoms: _17  and  _19
REMARK    6  A    between atoms: _19  and  _20
REMARK    7  A    between atoms: _19  and  _22
REMARK    8  A    between atoms: _22  and  _23
REMARK    9  A    between atoms: _28  and  _29
REMARK   10  A    between atoms: _31  and  _33
REMARK   11  A    between atoms: _33  and  _34
REMARK   12  A    between atoms: _33  and  _36
REMARK   13  A    between atoms: _36  and  _37
REMARK   14  A    between atoms: _40  and  _41
REMARK   15  A    between atoms: _46  and  _48
REMARK   16  A    between atoms: _48  and  _49
REMARK   17  A    between atoms: _48  and  _51
REMARK   18  A    between atoms: _51  and  _52
REMARK   19  A    between atoms: _57  and  _59
REMARK   20  A    between atoms: _59  and  _60
REMARK   21  A    between atoms: _59  and  _62
REMARK   22  A    between atoms: _62  and  _63
REMARK   23  A    between atoms: _68  and  _70
REMARK   24  A    between atoms: _70  and  _71
REMARK   25  A    between atoms: _74  and  _76
REMARK   26  A    between atoms: _76  and  _77
REMARK   27  A    between atoms: _76  and  _79
REMARK   28  A    between atoms: _79  and  _80
REMARK   29  A    between atoms: _85  and  _87
REMARK   30  A    between atoms: _87  and  _88
REMARK   31  A    between atoms: _87  and  _90
REMARK   32  A    between atoms: _90  and  _91
REMARK   33  A    between atoms: _94  and  _96
REMARK   34  A    between atoms: _96  and  _97
REMARK   35  A    between atoms: _96  and  _99
REMARK   36  A    between atoms: _99  and  _100
REMARK   37  A    between atoms: _100  and  _101
REMARK   38  A    between atoms: _106  and  _108
REMARK   39  A    between atoms: _108  and  _109
REMARK   40  A    between atoms: _108  and  _111
REMARK   41  A    between atoms: _111  and  _112
REMARK   42  A    between atoms: _118  and  _120
REMARK   43  A    between atoms: _131  and  _134
REMARK   44  A    between atoms: _134  and  _135
REMARK   45  A    between atoms: _143  and  _144
REMARK   46  A    between atoms: _152  and  _154
REMARK   47  A    between atoms: _154  and  _155
REMARK   48  A    between atoms: _154  and  _157
REMARK   49  A    between atoms: _157  and  _158
REMARK   50  A    between atoms: _158  and  _159
REMARK   51  A    between atoms: _162  and  _164
REMARK   52  A    between atoms: _164  and  _165
REMARK   53  A    between atoms: _164  and  _167
REMARK   54  A    between atoms: _167  and  _168
REMARK   55  A    between atoms: _173  and  _175
REMARK   56  A    between atoms: _175  and  _176
REMARK   57  A    between atoms: _175  and  _178
REMARK   58  A    between atoms: _178  and  _179
REMARK   59  A    between atoms: _179  and  _180
REMARK   60  A    between atoms: _183  and  _185
REMARK   61  A    between atoms: _185  and  _186
REMARK   62  A    between atoms: _185  and  _188
REMARK   63  A    between atoms: _188  and  _189
REMARK   64  A    between atoms: _192  and  _194
REMARK   65  A    between atoms: _194  and  _195
REMARK   66  A    between atoms: _194  and  _197
REMARK   67  A    between atoms: _197  and  _198
REMARK   68  A    between atoms: _199  and  ZN_419
REMARK   69  A    between atoms: _203  and  _205
REMARK   70  A    between atoms: _205  and  _206
REMARK   71  A    between atoms: _205  and  _208
REMARK   72  A    between atoms: _208  and  _209
REMARK   73  A    between atoms: _212  and  _214
REMARK   74  A    between atoms: _214  and  _215
REMARK   75  A    between atoms: _214  and  _217
REMARK   76  A    between atoms: _220  and  _222
REMARK   77  A    between atoms: _222  and  _223
REMARK   78  A    between atoms: _222  and  _225
REMARK   79  A    between atoms: _225  and  _226
REMARK   80  A    between atoms: _231  and  _233
REMARK   81  A    between atoms: _233  and  _234
REMARK   82  A    between atoms: _233  and  _236
REMARK   83  A    between atoms: _236  and  _237
REMARK   84  A    between atoms: _243  and  _245
REMARK   85  A    between atoms: _245  and  _246
REMARK   86  A    between atoms: _245  and  _248
REMARK   87  A    between atoms: _251  and  _253
REMARK   88  A    between atoms: _253  and  _254
REMARK   89  A    between atoms: _253  and  _256
REMARK   90  A    between atoms: _256  and  _257
REMARK   91  A    between atoms: _260  and  _262
REMARK   92  A    between atoms: _262  and  _263
REMARK   93  A    between atoms: _266  and  _268
REMARK   94  A    between atoms: _268  and  _269
REMARK   95  A    between atoms: _268  and  _271
REMARK   96  A    between atoms: _274  and  _276
REMARK   97  A    between atoms: _276  and  _277
REMARK   98  A    between atoms: _276  and  _279
REMARK   99  A    between atoms: _279  and  _280
REMARK  100  A    between atoms: _283  and  _285
REMARK  101  A    between atoms: _285  and  _286
REMARK  102  A    between atoms: _288  and  _290
REMARK  103  A    between atoms: _290  and  _291
REMARK  104  A    between atoms: _293  and  _295
REMARK  105  A    between atoms: _295  and  _296
REMARK  106  A    between atoms: _295  and  _298
REMARK  107  A    between atoms: _298  and  _299
REMARK  108  A    between atoms: _301  and  _303
REMARK  109  A    between atoms: _303  and  _304
REMARK  110  A    between atoms: _303  and  _306
REMARK  111  A    between atoms: _306  and  _307
REMARK  112  A    between atoms: _310  and  _312
REMARK  113  A    between atoms: _312  and  _313
REMARK  114  A    between atoms: _312  and  _315
REMARK  115  A    between atoms: _315  and  _316
REMARK  116  A    between atoms: _319  and  _321
REMARK  117  A    between atoms: _321  and  _322
REMARK  118  A    between atoms: _321  and  _324
REMARK  119  A    between atoms: _324  and  _325
REMARK  120  A    between atoms: _329  and  _330
REMARK  121  A    between atoms: _336  and  _337
REMARK  122  A    between atoms: _342  and  _344
REMARK  123  A    between atoms: _344  and  _345
REMARK  124  A    between atoms: _344  and  _347
REMARK  125  A    between atoms: _347  and  _348
REMARK  126  A    between atoms: _351  and  _353
REMARK  127  A    between atoms: _353  and  _354
REMARK  128  A    between atoms: _353  and  _356
REMARK  129  A    between atoms: _356  and  _357
REMARK  130  A    between atoms: _360  and  _362
REMARK  131  A    between atoms: _362  and  _363
REMARK  132  A    between atoms: _362  and  _365
REMARK  133  A    between atoms: _367  and  _369
REMARK  134  A    between atoms: _369  and  _370
REMARK  135  A    between atoms: _369  and  _372
REMARK  136  A    between atoms: _375  and  _377
REMARK  137  A    between atoms: _377  and  _378
REMARK  138  A    between atoms: _377  and  _380
REMARK  139  A    between atoms: _380  and  _381
REMARK  140  A    between atoms: _391  and  _393
REMARK  141  A    between atoms: _393  and  _394
REMARK  142  A    between atoms: _393  and  _396
REMARK  143  A    between atoms: _396  and  _397
REMARK  144  A    between atoms: _402  and  _404
REMARK  145  A    between atoms: _404  and  _405
REMARK  146  A    between atoms: _404  and  _407
REMARK  147  A    between atoms: _407  and  _408
REMARK  148  A    between atoms: _408  and  _409
REMARK  149  A    between atoms: _409  and  _410
REMARK                            x       y       z     vdW  Elec       q    Type
REMARK                         _______ _______ _______ _____ _____    ______ ____
ROOT
ATOM      1  CA  VAL A   1      17.305  13.995  19.694  0.00  0.00    +0.133 C 
ENDROOT
BRANCH   1   2
ATOM      2  CB  VAL A   1      17.863  13.231  18.474  0.00  0.00    +0.023 C 
ATOM      3  CG2 VAL A   1      16.775  12.310  17.932  0.00  0.00    +0.002 C 
ATOM      4  CG1 VAL A   1      18.376  14.146  17.383  0.00  0.00    +0.002 C 
ENDBRANCH   1   2
BRANCH   1   5
ATOM      5  N   VAL A   1      16.297  14.989  19.300  0.00  0.00    -0.239 NA
ATOM      6  H   VAL A   1      16.323  15.418  18.353  0.00  0.00    +0.142 HD
ENDBRANCH   1   5
BRANCH   1   7
ATOM      7  C   VAL A   1      18.430  14.594  20.531  0.00  0.00    +0.224 C 
ATOM      8  O   VAL A   1      19.475  13.974  20.762  0.00  0.00    -0.287 OA
ENDBRANCH   1   7
TORSDOF 3
REMARK  Name = ../refined-set-2016/2q38/2q38_pocket.pdb
REMARK  149 active torsions:
REMARK  status: ('A' for Active; 'I' for Inactive)
REMARK    1  A    between atoms: _1  and  _3
REMARK    2  A    between atoms: _3  and  _4
REMARK    3  A    between atoms: _3  and  _6
REMARK    4  A    between atoms: _6  and  _7
REMARK    5  A    between atoms: _17  and  _19
REMARK    6  A    between atoms: _19  and  _20
REMARK    7  A    between atoms: _19  and  _22
REMARK    8  A    between atoms: _22  and  _23
REMARK    9  A    between atoms: _28  and  _29
REMARK   10  A    between atoms: _31  and  _33
REMARK   11  A    between atoms: _33  and  _34
REMARK   12  A    between atoms: _33  and  _36
REMARK   13  A    between atoms: _36  and  _37
REMARK   14  A    between atoms: _40  and  _41
REMARK   15  A    between atoms: _46  and  _48
REMARK   16  A    between atoms: _48  and  _49
REMARK   17  A    between atoms: _48  and  _51
REMARK   18  A    between atoms: _51  and  _52
REMARK   19  A    between atoms: _57  and  _59
REMARK   20  A    between atoms: _59  and  _60
REMARK   21  A    between atoms: _59  and  _62
REMARK   22  A    between atoms: _62  and  _63
REMARK   23  A    between atoms: _68  and  _70
REMARK   24  A    between atoms: _70  and  _71
REMARK   25  A    between atoms: _74  and  _76
REMARK   26  A    between atoms: _76  and  _77
REMARK   27  A    between atoms: _76  and  _79
REMARK   28  A    between atoms: _79  and  _80
REMARK   29  A    between atoms: _85  and  _87
REMARK   30  A    between atoms: _87  and  _88
REMARK   31  A    between atoms: _87  and  _90
REMARK   32  A    between atoms: _90  and  _91
REMARK   33  A    between atoms: _94  and  _96
REMARK   34  A    between atoms: _96  and  _97
REMARK   35  A    between atoms: _96  and  _99
REMARK   36  A    between atoms: _99  and  _100
REMARK   37  A    between atoms: _100  and  _101
REMARK   38  A    between atoms: _106  and  _108
REMARK   39  A    between atoms: _108  and  _109
REMARK   40  A    between atoms: _108  and  _111
REMARK   41  A    between atoms: _111  and  _112
REMARK   42  A    between atoms: _118  and  _120
REMARK   43  A    between atoms: _131  and  _134
REMARK   44  A    between atoms: _134  and  _135
REMARK   45  A    between atoms: _143  and  _144
REMARK   46  A    between atoms: _152  and  _154
REMARK   47  A    between atoms: _154  and  _155
REMARK   48  A    between atoms: _154  and  _157
REMARK   49  A    between atoms: _157  and  _158
REMARK   50  A    between atoms: _158  and  _159
REMARK   51  A    between atoms: _162  and  _164
REMARK   52  A    between atoms: _164  and  _165
REMARK   53  A    between atoms: _164  and  _167
REMARK   54  A    between atoms: _167  and  _168
REMARK   55  A    between atoms: _173  and  _175
REMARK   56  A    between atoms: _175  and  _176
REMARK   57  A    between atoms: _175  and  _178
REMARK   58  A    between atoms: _178  and  _179
REMARK   59  A    between atoms: _179  and  _180
REMARK   60  A    between atoms: _183  and  _185
REMARK   61  A    between atoms: _185  and  _186
REMARK   62  A    between atoms: _185  and  _188
REMARK   63  A    between atoms: _188  and  _189
REMARK   64  A    between atoms: _192  and  _194
REMARK   65  A    between atoms: _194  and  _195
REMARK   66  A    between atoms: _194  and  _197
REMARK   67  A    between atoms: _197  and  _198
REMARK   68  A    between atoms: _199  and  ZN_419
REMARK   69  A    between atoms: _203  and  _205
REMARK   70  A    between atoms: _205  and  _206
REMARK   71  A    between atoms: _205  and  _208
REMARK   72  A    between atoms: _208  and  _209
REMARK   73  A    between atoms: _212  and  _214
REMARK   74  A    between atoms: _214  and  _215
REMARK   75  A    between atoms: _214  and  _217
REMARK   76  A    between atoms: _220  and  _222
REMARK   77  A    between atoms: _222  and  _223
REMARK   78  A    between atoms: _222  and  _225
REMARK   79  A    between atoms: _225  and  _226
REMARK   80  A    between atoms: _231  and  _233
REMARK   81  A    between atoms: _233  and  _234
REMARK   82  A    between atoms: _233  and  _236
REMARK   83  A    between atoms: _236  and  _237
REMARK   84  A    between atoms: _243  and  _245
REMARK   85  A    between atoms: _245  and  _246
REMARK   86  A    between atoms: _245  and  _248
REMARK   87  A    between atoms: _251  and  _253
REMARK   88  A    between atoms: _253  and  _254
REMARK   89  A    between atoms: _253  and  _256
REMARK   90  A    between atoms: _256  and  _257
REMARK   91  A    between atoms: _260  and  _262
REMARK   92  A    between atoms: _262  and  _263
REMARK   93  A    between atoms: _266  and  _268
REMARK   94  A    between atoms: _268  and  _269
REMARK   95  A    between atoms: _268  and  _271
REMARK   96  A    between atoms: _274  and  _276
REMARK   97  A    between atoms: _276  and  _277
REMARK   98  A    between atoms: _276  and  _279
REMARK   99  A    between atoms: _279  and  _280
REMARK  100  A    between atoms: _283  and  _285
REMARK  101  A    between atoms: _285  and  _286
REMARK  102  A    between atoms: _288  and  _290
REMARK  103  A    between atoms: _290  and  _291
REMARK  104  A    between atoms: _293  and  _295
REMARK  105  A    between atoms: _295  and  _296
REMARK  106  A    between atoms: _295  and  _298
REMARK  107  A    between atoms: _298  and  _299
REMARK  108  A    between atoms: _301  and  _303
REMARK  109  A    between atoms: _303  and  _304
REMARK  110  A    between atoms: _303  and  _306
REMARK  111  A    between atoms: _306  and  _307
REMARK  112  A    between atoms: _310  and  _312
REMARK  113  A    between atoms: _312  and  _313
REMARK  114  A    between atoms: _312  and  _315
REMARK  115  A    between atoms: _315  and  _316
REMARK  116  A    between atoms: _319  and  _321
REMARK  117  A    between atoms: _321  and  _322
REMARK  118  A    between atoms: _321  and  _324
REMARK  119  A    between atoms: _324  and  _325
REMARK  120  A    between atoms: _329  and  _330
REMARK  121  A    between atoms: _336  and  _337
REMARK  122  A    between atoms: _342  and  _344
REMARK  123  A    between atoms: _344  and  _345
REMARK  124  A    between atoms: _344  and  _347
REMARK  125  A    between atoms: _347  and  _348
REMARK  126  A    between atoms: _351  and  _353
REMARK  127  A    between atoms: _353  and  _354
REMARK  128  A    between atoms: _353  and  _356
REMARK  129  A    between atoms: _356  and  _357
REMARK  130  A    between atoms: _360  and  _362
REMARK  131  A    between atoms: _362  and  _363
REMARK  132  A    between atoms: _362  and  _365
REMARK  133  A    between atoms: _367  and  _369
REMARK  134  A    between atoms: _369  and  _370
REMARK  135  A    between atoms: _369  and  _372
REMARK  136  A    between atoms: _375  and  _377
REMARK  137  A    between atoms: _377  and  _378
REMARK  138  A    between atoms: _377  and  _380
REMARK  139  A    between atoms: _380  and  _381
REMARK  140  A    between atoms: _391  and  _393
REMARK  141  A    between atoms: _393  and  _394
REMARK  142  A    between atoms: _393  and  _396
REMARK  143  A    between atoms: _396  and  _397
REMARK  144  A    between atoms: _402  and  _404
REMARK  145  A    between atoms: _404  and  _405
REMARK  146  A    between atoms: _404  and  _407
REMARK  147  A    between atoms: _407  and  _408
REMARK  148  A    between atoms: _408  and  _409
REMARK  149  A    between atoms: _409  and  _410
REMARK                            x       y       z     vdW  Elec       q    Type
REMARK                         _______ _______ _______ _____ _____    ______ ____
ROOT
ATOM      1  CA  VAL A   3       8.929   4.691  20.117  0.00  0.00    +0.149 C 
ENDROOT
BRANCH   1   3
ATOM      2  C   ALA A   2       8.664   6.989  20.776  0.00  0.00    +0.241 C 
ATOM      3  N   VAL A   3       9.011   5.752  21.110  0.00  0.00    -0.297 N 
ATOM      4  H   VAL A   3       9.339   5.542  22.074  0.00  0.00    +0.150 HD
ATOM      5  O   ALA A   2       8.329   7.344  19.644  0.00  0.00    -0.273 OA
BRANCH   2   6
ATOM      6  CA  ALA A   2       8.723   8.014  21.910  0.00  0.00    +0.149 C 
ATOM      7  CB  ALA A   2       7.330   8.371  22.377  0.00  0.00    +0.031 C 
BRANCH   6  10
ATOM      8  C   LEU A   1      10.522   9.641  22.090  0.00  0.00    +0.238 C 
ATOM      9  O   LEU A   1      10.777   9.293  23.242  0.00  0.00    -0.274 OA
ATOM     10  N   ALA A   2       9.484   9.150  21.431  0.00  0.00    -0.297 N 
ATOM     11  H   ALA A   2       9.204   9.597  20.535  0.00  0.00    +0.150 HD
BRANCH   8  12
ATOM     12  CA  LEU A   1      11.382  10.638  21.319  0.00  0.00    +0.145 C 
BRANCH  12  13
ATOM     13  N   LEU A   1      12.008  11.607  22.211  0.00  0.00    -0.238 NA
ATOM     14  H   LEU A   1      12.529  11.282  23.050  0.00  0.00    +0.142 HD
ENDBRANCH  12  13
BRANCH  12  15
ATOM     15  CB  LEU A   1      12.429   9.871  20.515  0.00  0.00    +0.026 C 
BRANCH  15  16
ATOM     16  CG  LEU A   1      13.391  10.589  19.581  0.00  0.00    +0.002 C 
ATOM     17  CD2 LEU A   1      14.381   9.618  18.935  0.00  0.00    +0.000 C 
ATOM     18  CD1 LEU A   1      12.712  11.352  18.441  0.00  0.00    +0.000 C 
ENDBRANCH  15  16
ENDBRANCH  12  15
ENDBRANCH   8  12
ENDBRANCH   6  10
ENDBRANCH   2   6
ENDBRANCH   1   3
BRANCH   1  19
ATOM     19  C   VAL A   3       7.936   3.637  20.600  0.00  0.00    +0.241 C 
ATOM     20  O   VAL A   3       8.016   3.170  21.733  0.00  0.00    -0.273 OA
ATOM     21  N   LEU A   4       7.010   3.312  19.717  0.00  0.00    -0.297 N 
ATOM     22  H   LEU A   4       6.971   3.852  18.829  0.00  0.00    +0.150 HD
BRANCH  21  23
ATOM     23  CA  LEU A   4       6.043   2.247  19.911  0.00  0.00    +0.149 C 
BRANCH  23  24
ATOM     24  C   LEU A   4       6.578   0.976  19.259  0.00  0.00    +0.241 C 
ATOM     25  N   GLY A   5       6.946   0.018  20.098  0.00  0.00    -0.296 N 
ATOM     26  H   GLY A   5       6.846   0.175  21.121  0.00  0.00    +0.150 HD
ATOM     27  O   LEU A   4       6.652   0.896  18.036  0.00  0.00    -0.273 OA
BRANCH  25  28
ATOM     28  CA  GLY A   5       7.486  -1.245  19.625  0.00  0.00    +0.163 C 
BRANCH  28  29
ATOM     29  C   GLY A   5       6.433  -2.333  19.597  0.00  0.00    +0.229 C 
ATOM     30  O   GLY A   5       5.661  -2.528  20.528  0.00  0.00    -0.286 OA
ENDBRANCH  28  29
ENDBRANCH  25  28
ENDBRANCH  23  24
BRANCH  23  31
ATOM     31  CB  LEU A   4       4.695   2.616  19.304  0.00  0.00    +0.029 C 
BRANCH  31  32
ATOM     32  CG  LEU A   4       3.513   1.684  19.564  0.00  0.00    +0.002 C 
ATOM     33  CD2 LEU A   4       3.333   1.411  21.051  0.00  0.00    +0.000 C 
ATOM     34  CD1 LEU A   4       2.274   2.312  18.942  0.00  0.00    +0.000 C 
ENDBRANCH  31  32
ENDBRANCH  23  31
ENDBRANCH  21  23
ENDBRANCH   1  19
BRANCH   1  35
ATOM     35  CB  VAL A   3      10.277   4.042  19.802  0.00  0.00    +0.027 C 
ATOM     36  CG2 VAL A   3      11.276   5.108  19.391  0.00  0.00    +0.002 C 
ATOM     37  CG1 VAL A   3      10.117   2.992  18.703  0.00  0.00    +0.002 C 
ENDBRANCH   1  35
TORSDOF 15
REMARK  Name = ../refined-set-2016/2q38/2q38_pocket.pdb
REMARK  149 active torsions:
REMARK  status: ('A' for Active; 'I' for Inactive)
REMARK    1  A    between atoms: _1  and  _3
REMARK    2  A    between atoms: _3  and  _4
REMARK    3  A    between atoms: _3  and  _6
REMARK    4  A    between atoms: _6  and  _7
REMARK    5  A    between atoms: _17  and  _19
REMARK    6  A    between atoms: _19  and  _20
REMARK    7  A    between atoms: _19  and  _22
REMARK    8  A    between atoms: _22  and  _23
REMARK    9  A    between atoms: _28  and  _29
REMARK   10  A    between atoms: _31  and  _33
REMARK   11  A    between atoms: _33  and  _34
REMARK   12  A    between atoms: _33  and  _36
REMARK   13  A    between atoms: _36  and  _37
REMARK   14  A    between atoms: _40  and  _41
REMARK   15  A    between atoms: _46  and  _48
REMARK   16  A    between atoms: _48  and  _49
REMARK   17  A    between atoms: _48  and  _51
REMARK   18  A    between atoms: _51  and  _52
REMARK   19  A    between atoms: _57  and  _59
REMARK   20  A    between atoms: _59  and  _60
REMARK   21  A    between atoms: _59  and  _62
REMARK   22  A    between atoms: _62  and  _63
REMARK   23  A    between atoms: _68  and  _70
REMARK   24  A    between atoms: _70  and  _71
REMARK   25  A    between atoms: _74  and  _76
REMARK   26  A    between atoms: _76  and  _77
REMARK   27  A    between atoms: _76  and  _79
REMARK   28  A    between atoms: _79  and  _80
REMARK   29  A    between atoms: _85  and  _87
REMARK   30  A    between atoms: _87  and  _88
REMARK   31  A    between atoms: _87  and  _90
REMARK   32  A    between atoms: _90  and  _91
REMARK   33  A    between atoms: _94  and  _96
REMARK   34  A    between atoms: _96  and  _97
REMARK   35  A    between atoms: _96  and  _99
REMARK   36  A    between atoms: _99  and  _100
REMARK   37  A    between atoms: _100  and  _101
REMARK   38  A    between atoms: _106  and  _108
REMARK   39  A    between atoms: _108  and  _109
REMARK   40  A    between atoms: _108  and  _111
REMARK   41  A    between atoms: _111  and  _112
REMARK   42  A    between atoms: _118  and  _120
REMARK   43  A    between atoms: _131  and  _134
REMARK   44  A    between atoms: _134  and  _135
REMARK   45  A    between atoms: _143  and  _144
REMARK   46  A    between atoms: _152  and  _154
REMARK   47  A    between atoms: _154  and  _155
REMARK   48  A    between atoms: _154  and  _157
REMARK   49  A    between atoms: _157  and  _158
REMARK   50  A    between atoms: _158  and  _159
REMARK   51  A    between atoms: _162  and  _164
REMARK   52  A    between atoms: _164  and  _165
REMARK   53  A    between atoms: _164  and  _167
REMARK   54  A    between atoms: _167  and  _168
REMARK   55  A    between atoms: _173  and  _175
REMARK   56  A    between atoms: _175  and  _176
REMARK   57  A    between atoms: _175  and  _178
REMARK   58  A    between atoms: _178  and  _179
REMARK   59  A    between atoms: _179  and  _180
REMARK   60  A    between atoms: _183  and  _185
REMARK   61  A    between atoms: _185  and  _186
REMARK   62  A    between atoms: _185  and  _188
REMARK   63  A    between atoms: _188  and  _189
REMARK   64  A    between atoms: _192  and  _194
REMARK   65  A    between atoms: _194  and  _195
REMARK   66  A    between atoms: _194  and  _197
REMARK   67  A    between atoms: _197  and  _198
REMARK   68  A    between atoms: _199  and  ZN_419
REMARK   69  A    between atoms: _203  and  _205
REMARK   70  A    between atoms: _205  and  _206
REMARK   71  A    between atoms: _205  and  _208
REMARK   72  A    between atoms: _208  and  _209
REMARK   73  A    between atoms: _212  and  _214
REMARK   74  A    between atoms: _214  and  _215
REMARK   75  A    between atoms: _214  and  _217
REMARK   76  A    between atoms: _220  and  _222
REMARK   77  A    between atoms: _222  and  _223
REMARK   78  A    between atoms: _222  and  _225
REMARK   79  A    between atoms: _225  and  _226
REMARK   80  A    between atoms: _231  and  _233
REMARK   81  A    between atoms: _233  and  _234
REMARK   82  A    between atoms: _233  and  _236
REMARK   83  A    between atoms: _236  and  _237
REMARK   84  A    between atoms: _243  and  _245
REMARK   85  A    between atoms: _245  and  _246
REMARK   86  A    between atoms: _245  and  _248
REMARK   87  A    between atoms: _251  and  _253
REMARK   88  A    between atoms: _253  and  _254
REMARK   89  A    between atoms: _253  and  _256
REMARK   90  A    between atoms: _256  and  _257
REMARK   91  A    between atoms: _260  and  _262
REMARK   92  A    between atoms: _262  and  _263
REMARK   93  A    between atoms: _266  and  _268
REMARK   94  A    between atoms: _268  and  _269
REMARK   95  A    between atoms: _268  and  _271
REMARK   96  A    between atoms: _274  and  _276
REMARK   97  A    between atoms: _276  and  _277
REMARK   98  A    between atoms: _276  and  _279
REMARK   99  A    between atoms: _279  and  _280
REMARK  100  A    between atoms: _283  and  _285
REMARK  101  A    between atoms: _285  and  _286
REMARK  102  A    between atoms: _288  and  _290
REMARK  103  A    between atoms: _290  and  _291
REMARK  104  A    between atoms: _293  and  _295
REMARK  105  A    between atoms: _295  and  _296
REMARK  106  A    between atoms: _295  and  _298
REMARK  107  A    between atoms: _298  and  _299
REMARK  108  A    between atoms: _301  and  _303
REMARK  109  A    between atoms: _303  and  _304
REMARK  110  A    between atoms: _303  and  _306
REMARK  111  A    between atoms: _306  and  _307
REMARK  112  A    between atoms: _310  and  _312
REMARK  113  A    between atoms: _312  and  _313
REMARK  114  A    between atoms: _312  and  _315
REMARK  115  A    between atoms: _315  and  _316
REMARK  116  A    between atoms: _319  and  _321
REMARK  117  A    between atoms: _321  and  _322
REMARK  118  A    between atoms: _321  and  _324
REMARK  119  A    between atoms: _324  and  _325
REMARK  120  A    between atoms: _329  and  _330
REMARK  121  A    between atoms: _336  and  _337
REMARK  122  A    between atoms: _342  and  _344
REMARK  123  A    between atoms: _344  and  _345
REMARK  124  A    between atoms: _344  and  _347
REMARK  125  A    between atoms: _347  and  _348
REMARK  126  A    between atoms: _351  and  _353
REMARK  127  A    between atoms: _353  and  _354
REMARK  128  A    between atoms: _353  and  _356
REMARK  129  A    between atoms: _356  and  _357
REMARK  130  A    between atoms: _360  and  _362
REMARK  131  A    between atoms: _362  and  _363
REMARK  132  A    between atoms: _362  and  _365
REMARK  133  A    between atoms: _367  and  _369
REMARK  134  A    between atoms: _369  and  _370
REMARK  135  A    between atoms: _369  and  _372
REMARK  136  A    between atoms: _375  and  _377
REMARK  137  A    between atoms: _377  and  _378
REMARK  138  A    between atoms: _377  and  _380
REMARK  139  A    between atoms: _380  and  _381
REMARK  140  A    between atoms: _391  and  _393
REMARK  141  A    between atoms: _393  and  _394
REMARK  142  A    between atoms: _393  and  _396
REMARK  143  A    between atoms: _396  and  _397
REMARK  144  A    between atoms: _402  and  _404
REMARK  145  A    between atoms: _404  and  _405
REMARK  146  A    between atoms: _404  and  _407
REMARK  147  A    between atoms: _407  and  _408
REMARK  148  A    between atoms: _408  and  _409
REMARK  149  A    between atoms: _409  and  _410
REMARK                            x       y       z     vdW  Elec       q    Type
REMARK                         _______ _______ _______ _____ _____    ______ ____
ROOT
ATOM      1  CA  THR A   5      21.064   2.013  16.059  0.00  0.00    +0.176 C 
ENDROOT
BRANCH   1   2
ATOM      2  C   THR A   5      21.921   3.250  16.299  0.00  0.00    +0.246 C 
ATOM      3  O   THR A   5      21.408   4.201  16.899  0.00  0.00    -0.273 OA
ATOM      4  N   PRO A   6      23.167   3.189  15.857  0.00  0.00    -0.272 N 
ATOM      5  CA  PRO A   6      24.027   4.384  15.928  0.00  0.00    +0.152 C 
ATOM      6  CB  PRO A   6      25.258   3.976  15.126  0.00  0.00    +0.031 C 
ATOM      7  CG  PRO A   6      25.307   2.486  15.251  0.00  0.00    +0.024 C 
ATOM      8  CD  PRO A   6      23.871   2.038  15.279  0.00  0.00    +0.094 C 
BRANCH   5   9
ATOM      9  C   PRO A   6      23.274   5.559  15.332  0.00  0.00    +0.244 C 
ATOM     10  N   PRO A   7      23.327   6.714  15.979  0.00  0.00    -0.272 N 
ATOM     11  CA  PRO A   7      24.211   6.982  17.106  0.00  0.00    +0.152 C 
ATOM     12  CB  PRO A   7      24.367   8.514  17.048  0.00  0.00    +0.031 C 
ATOM     13  CG  PRO A   7      23.242   9.035  16.231  0.00  0.00    +0.024 C 
ATOM     14  CD  PRO A   7      22.500   7.888  15.635  0.00  0.00    +0.094 C 
ATOM     15  O   PRO A   6      22.593   5.424  14.309  0.00  0.00    -0.273 OA
BRANCH  11  16
ATOM     16  C   PRO A   7      23.676   6.590  18.478  0.00  0.00    +0.241 C 
ATOM     17  O   PRO A   7      24.260   7.028  19.474  0.00  0.00    -0.273 OA
ATOM     18  N   LEU A   8      22.637   5.779  18.587  0.00  0.00    -0.297 N 
ATOM     19  H   LEU A   8      22.068   5.559  17.745  0.00  0.00    +0.150 HD
BRANCH  18  20
ATOM     20  CA  LEU A   8      22.277   5.186  19.876  0.00  0.00    +0.149 C 
BRANCH  20  21
ATOM     21  C   LEU A   8      21.924   6.192  20.970  0.00  0.00    +0.241 C 
ATOM     22  O   LEU A   8      22.123   5.894  22.157  0.00  0.00    -0.273 OA
ATOM     23  N   LEU A   9      21.411   7.346  20.575  0.00  0.00    -0.298 N 
ATOM     24  H   LEU A   9      21.222   7.472  19.560  0.00  0.00    +0.150 HD
BRANCH  23  25
ATOM     25  CA  LEU A   9      21.095   8.447  21.467  0.00  0.00    +0.137 C 
BRANCH  25  26
ATOM     26  C   LEU A   9      20.032   8.047  22.483  0.00  0.00    +0.227 C 
ATOM     27  O   LEU A   9      19.028   7.421  22.133  0.00  0.00    -0.286 OA
ENDBRANCH  25  26
BRANCH  25  28
ATOM     28  CB  LEU A   9      20.627   9.671  20.664  0.00  0.00    +0.028 C 
BRANCH  28  29
ATOM     29  CG  LEU A   9      21.657  10.124  19.615  0.00  0.00    +0.002 C 
ATOM     30  CD2 LEU A   9      22.862  10.764  20.287  0.00  0.00    +0.000 C 
ATOM     31  CD1 LEU A   9      21.022  11.065  18.617  0.00  0.00    +0.000 C 
ENDBRANCH  28  29
ENDBRANCH  25  28
ENDBRANCH  23  25
ENDBRANCH  20  21
BRANCH  20  32
ATOM     32  CB  LEU A   8      23.443   4.319  20.363  0.00  0.00    +0.029 C 
BRANCH  32  33
ATOM     33  CG  LEU A   8      23.847   3.080  19.567  0.00  0.00    +0.002 C 
ATOM     34  CD2 LEU A   8      25.159   2.494  20.080  0.00  0.00    +0.000 C 
ATOM     35  CD1 LEU A   8      22.771   2.007  19.632  0.00  0.00    +0.000 C 
ENDBRANCH  32  33
ENDBRANCH  20  32
ENDBRANCH  18  20
ENDBRANCH  11  16
ENDBRANCH   5   9
ENDBRANCH   1   2
BRANCH   1  38
ATOM     36  C   THR A   4      19.905   0.767  17.799  0.00  0.00    +0.243 C 
ATOM     37  O   THR A   4      20.594  -0.244  17.596  0.00  0.00    -0.273 OA
ATOM     38  N   THR A   5      20.052   1.882  17.090  0.00  0.00    -0.295 N 
ATOM     39  H   THR A   5      19.421   2.686  17.281  0.00  0.00    +0.150 HD
BRANCH  36  40
ATOM     40  CA  THR A   4      18.848   0.821  18.891  0.00  0.00    +0.176 C 
BRANCH  40  43
ATOM     41  C   LEU A   3      18.568   3.075  19.717  0.00  0.00    +0.241 C 
ATOM     42  O   LEU A   3      19.527   2.920  20.489  0.00  0.00    -0.273 OA
ATOM     43  N   THR A   4      18.138   2.111  18.910  0.00  0.00    -0.295 N 
ATOM     44  H   THR A   4      17.310   2.266  18.299  0.00  0.00    +0.150 HD
BRANCH  41  45
ATOM     45  CA  LEU A   3      17.874   4.441  19.716  0.00  0.00    +0.149 C 
BRANCH  45  48
ATOM     46  C   SER A   2      17.318   4.365  22.099  0.00  0.00    +0.243 C 
ATOM     47  O   SER A   2      16.465   3.498  21.987  0.00  0.00    -0.273 OA
ATOM     48  N   LEU A   3      17.903   4.964  21.073  0.00  0.00    -0.297 N 
ATOM     49  H   LEU A   3      18.410   5.855  21.247  0.00  0.00    +0.150 HD
BRANCH  46  50
ATOM     50  CA  SER A   2      17.787   4.800  23.476  0.00  0.00    +0.178 C 
BRANCH  50  53
ATOM     51  C   GLY A   1      16.589   4.834  25.592  0.00  0.00    +0.240 C 
ATOM     52  O   GLY A   1      16.578   6.065  25.657  0.00  0.00    -0.274 OA
ATOM     53  N   SER A   2      17.068   4.154  24.555  0.00  0.00    -0.295 N 
ATOM     54  H   SER A   2      16.922   3.125  24.517  0.00  0.00    +0.150 HD
BRANCH  51  55
ATOM     55  CA  GLY A   1      16.066   4.004  26.740  0.00  0.00    +0.169 C 
BRANCH  55  56
ATOM     56  N   GLY A   1      15.021   4.661  27.502  0.00  0.00    -0.236 NA
ATOM     57  H   GLY A   1      14.466   5.419  27.055  0.00  0.00    +0.142 HD
ENDBRANCH  55  56
ENDBRANCH  51  55
ENDBRANCH  50  53
BRANCH  50  58
ATOM     58  CB  SER A   2      19.281   4.458  23.628  0.00  0.00    +0.166 C 
BRANCH  58  59
ATOM     59  OG  SER A   2      19.473   3.080  23.338  0.00  0.00    -0.380 OA
ATOM     60  H   SER A   2      19.181   2.895  22.410  0.00  0.00    +0.211 HD
ENDBRANCH  58  59
ENDBRANCH  50  58
ENDBRANCH  46  50
ENDBRANCH  45  48
BRANCH  45  61
ATOM     61  CB  LEU A   3      18.602   5.383  18.766  0.00  0.00    +0.029 C 
BRANCH  61  62
ATOM     62  CG  LEU A   3      17.836   6.367  17.898  0.00  0.00    +0.002 C 
ATOM     63  CD2 LEU A   3      17.159   7.458  18.708  0.00  0.00    +0.000 C 
ATOM     64  CD1 LEU A   3      18.804   6.990  16.882  0.00  0.00    +0.000 C 
ENDBRANCH  61  62
ENDBRANCH  45  61
ENDBRANCH  41  45
ENDBRANCH  40  43
BRANCH  40  65
ATOM     65  CB  THR A   4      17.878  -0.362  18.733  0.00  0.00    +0.137 C 
ATOM     66  CG2 THR A   4      16.954  -0.454  19.949  0.00  0.00    +0.034 C 
BRANCH  65  67
ATOM     67  OG1 THR A   4      17.071  -0.138  17.562  0.00  0.00    -0.382 OA
ATOM     68  HG1 THR A   4      16.441  -0.893  17.448  0.00  0.00    +0.210 HD
ENDBRANCH  65  67
ENDBRANCH  40  65
ENDBRANCH  36  40
ENDBRANCH   1  38
BRANCH   1  69
ATOM     69  CB  THR A   5      20.421   2.124  14.662  0.00  0.00    +0.137 C 
ATOM     70  CG2 THR A   5      19.802   0.798  14.281  0.00  0.00    +0.034 C 
BRANCH  69  71
ATOM     71  OG1 THR A   5      19.391   3.126  14.735  0.00  0.00    -0.382 OA
ATOM     72  HG1 THR A   5      19.792   3.991  15.000  0.00  0.00    +0.210 HD
ENDBRANCH  69  71
ENDBRANCH   1  69
TORSDOF 28
REMARK  Name = ../refined-set-2016/2q38/2q38_pocket.pdb
REMARK  149 active torsions:
REMARK  status: ('A' for Active; 'I' for Inactive)
REMARK    1  A    between atoms: _1  and  _3
REMARK    2  A    between atoms: _3  and  _4
REMARK    3  A    between atoms: _3  and  _6
REMARK    4  A    between atoms: _6  and  _7
REMARK    5  A    between atoms: _17  and  _19
REMARK    6  A    between atoms: _19  and  _20
REMARK    7  A    between atoms: _19  and  _22
REMARK    8  A    between atoms: _22  and  _23
REMARK    9  A    between atoms: _28  and  _29
REMARK   10  A    between atoms: _31  and  _33
REMARK   11  A    between atoms: _33  and  _34
REMARK   12  A    between atoms: _33  and  _36
REMARK   13  A    between atoms: _36  and  _37
REMARK   14  A    between atoms: _40  and  _41
REMARK   15  A    between atoms: _46  and  _48
REMARK   16  A    between atoms: _48  and  _49
REMARK   17  A    between atoms: _48  and  _51
REMARK   18  A    between atoms: _51  and  _52
REMARK   19  A    between atoms: _57  and  _59
REMARK   20  A    between atoms: _59  and  _60
REMARK   21  A    between atoms: _59  and  _62
REMARK   22  A    between atoms: _62  and  _63
REMARK   23  A    between atoms: _68  and  _70
REMARK   24  A    between atoms: _70  and  _71
REMARK   25  A    between atoms: _74  and  _76
REMARK   26  A    between atoms: _76  and  _77
REMARK   27  A    between atoms: _76  and  _79
REMARK   28  A    between atoms: _79  and  _80
REMARK   29  A    between atoms: _85  and  _87
REMARK   30  A    between atoms: _87  and  _88
REMARK   31  A    between atoms: _87  and  _90
REMARK   32  A    between atoms: _90  and  _91
REMARK   33  A    between atoms: _94  and  _96
REMARK   34  A    between atoms: _96  and  _97
REMARK   35  A    between atoms: _96  and  _99
REMARK   36  A    between atoms: _99  and  _100
REMARK   37  A    between atoms: _100  and  _101
REMARK   38  A    between atoms: _106  and  _108
REMARK   39  A    between atoms: _108  and  _109
REMARK   40  A    between atoms: _108  and  _111
REMARK   41  A    between atoms: _111  and  _112
REMARK   42  A    between atoms: _118  and  _120
REMARK   43  A    between atoms: _131  and  _134
REMARK   44  A    between atoms: _134  and  _135
REMARK   45  A    between atoms: _143  and  _144
REMARK   46  A    between atoms: _152  and  _154
REMARK   47  A    between atoms: _154  and  _155
REMARK   48  A    between atoms: _154  and  _157
REMARK   49  A    between atoms: _157  and  _158
REMARK   50  A    between atoms: _158  and  _159
REMARK   51  A    between atoms: _162  and  _164
REMARK   52  A    between atoms: _164  and  _165
REMARK   53  A    between atoms: _164  and  _167
REMARK   54  A    between atoms: _167  and  _168
REMARK   55  A    between atoms: _173  and  _175
REMARK   56  A    between atoms: _175  and  _176
REMARK   57  A    between atoms: _175  and  _178
REMARK   58  A    between atoms: _178  and  _179
REMARK   59  A    between atoms: _179  and  _180
REMARK   60  A    between atoms: _183  and  _185
REMARK   61  A    between atoms: _185  and  _186
REMARK   62  A    between atoms: _185  and  _188
REMARK   63  A    between atoms: _188  and  _189
REMARK   64  A    between atoms: _192  and  _194
REMARK   65  A    between atoms: _194  and  _195
REMARK   66  A    between atoms: _194  and  _197
REMARK   67  A    between atoms: _197  and  _198
REMARK   68  A    between atoms: _199  and  ZN_419
REMARK   69  A    between atoms: _203  and  _205
REMARK   70  A    between atoms: _205  and  _206
REMARK   71  A    between atoms: _205  and  _208
REMARK   72  A    between atoms: _208  and  _209
REMARK   73  A    between atoms: _212  and  _214
REMARK   74  A    between atoms: _214  and  _215
REMARK   75  A    between atoms: _214  and  _217
REMARK   76  A    between atoms: _220  and  _222
REMARK   77  A    between atoms: _222  and  _223
REMARK   78  A    between atoms: _222  and  _225
REMARK   79  A    between atoms: _225  and  _226
REMARK   80  A    between atoms: _231  and  _233
REMARK   81  A    between atoms: _233  and  _234
REMARK   82  A    between atoms: _233  and  _236
REMARK   83  A    between atoms: _236  and  _237
REMARK   84  A    between atoms: _243  and  _245
REMARK   85  A    between atoms: _245  and  _246
REMARK   86  A    between atoms: _245  and  _248
REMARK   87  A    between atoms: _251  and  _253
REMARK   88  A    between atoms: _253  and  _254
REMARK   89  A    between atoms: _253  and  _256
REMARK   90  A    between atoms: _256  and  _257
REMARK   91  A    between atoms: _260  and  _262
REMARK   92  A    between atoms: _262  and  _263
REMARK   93  A    between atoms: _266  and  _268
REMARK   94  A    between atoms: _268  and  _269
REMARK   95  A    between atoms: _268  and  _271
REMARK   96  A    between atoms: _274  and  _276
REMARK   97  A    between atoms: _276  and  _277
REMARK   98  A    between atoms: _276  and  _279
REMARK   99  A    between atoms: _279  and  _280
REMARK  100  A    between atoms: _283  and  _285
REMARK  101  A    between atoms: _285  and  _286
REMARK  102  A    between atoms: _288  and  _290
REMARK  103  A    between atoms: _290  and  _291
REMARK  104  A    between atoms: _293  and  _295
REMARK  105  A    between atoms: _295  and  _296
REMARK  106  A    between atoms: _295  and  _298
REMARK  107  A    between atoms: _298  and  _299
REMARK  108  A    between atoms: _301  and  _303
REMARK  109  A    between atoms: _303  and  _304
REMARK  110  A    between atoms: _303  and  _306
REMARK  111  A    between atoms: _306  and  _307
REMARK  112  A    between atoms: _310  and  _312
REMARK  113  A    between atoms: _312  and  _313
REMARK  114  A    between atoms: _312  and  _315
REMARK  115  A    between atoms: _315  and  _316
REMARK  116  A    between atoms: _319  and  _321
REMARK  117  A    between atoms: _321  and  _322
REMARK  118  A    between atoms: _321  and  _324
REMARK  119  A    between atoms: _324  and  _325
REMARK  120  A    between atoms: _329  and  _330
REMARK  121  A    between atoms: _336  and  _337
REMARK  122  A    between atoms: _342  and  _344
REMARK  123  A    between atoms: _344  and  _345
REMARK  124  A    between atoms: _344  and  _347
REMARK  125  A    between atoms: _347  and  _348
REMARK  126  A    between atoms: _351  and  _353
REMARK  127  A    between atoms: _353  and  _354
REMARK  128  A    between atoms: _353  and  _356
REMARK  129  A    between atoms: _356  and  _357
REMARK  130  A    between atoms: _360  and  _362
REMARK  131  A    between atoms: _362  and  _363
REMARK  132  A    between atoms: _362  and  _365
REMARK  133  A    between atoms: _367  and  _369
REMARK  134  A    between atoms: _369  and  _370
REMARK  135  A    between atoms: _369  and  _372
REMARK  136  A    between atoms: _375  and  _377
REMARK  137  A    between atoms: _377  and  _378
REMARK  138  A    between atoms: _377  and  _380
REMARK  139  A    between atoms: _380  and  _381
REMARK  140  A    between atoms: _391  and  _393
REMARK  141  A    between atoms: _393  and  _394
REMARK  142  A    between atoms: _393  and  _396
REMARK  143  A    between atoms: _396  and  _397
REMARK  144  A    between atoms: _402  and  _404
REMARK  145  A    between atoms: _404  and  _405
REMARK  146  A    between atoms: _404  and  _407
REMARK  147  A    between atoms: _407  and  _408
REMARK  148  A    between atoms: _408  and  _409
REMARK  149  A    between atoms: _409  and  _410
REMARK                            x       y       z     vdW  Elec       q    Type
REMARK                         _______ _______ _______ _____ _____    ______ ____
ROOT
ATOM      1  C   CYS A   1      14.954   9.517  24.071  0.00  0.00    +0.239 C 
ATOM      2  N   VAL A   2      14.851   8.203  24.253  0.00  0.00    -0.298 N 
ATOM      3  H   VAL A   2      15.669   7.666  24.607  0.00  0.00    +0.150 HD
ATOM      4  O   CYS A   1      13.971  10.243  23.863  0.00  0.00    -0.274 OA
ENDROOT
BRANCH   1   5
ATOM      5  CA  CYS A   1      16.348  10.128  24.096  0.00  0.00    +0.156 C 
BRANCH   5   6
ATOM      6  N   CYS A   1      17.424   9.147  24.066  0.00  0.00    -0.237 NA
ATOM      7  H   CYS A   1      17.487   8.485  23.266  0.00  0.00    +0.142 HD
ENDBRANCH   5   6
BRANCH   5   8
ATOM      8  CB  CYS A   1      16.477  11.035  22.864  0.00  0.00    +0.095 C 
ATOM      9  SG  CYS A   1      18.148  11.583  22.465  0.00  0.00    -0.080 S 
ENDBRANCH   5   8
ENDBRANCH   1   5
BRANCH   2  10
ATOM     10  CA  VAL A   2      13.605   7.510  23.962  0.00  0.00    +0.137 C 
BRANCH  10  11
ATOM     11  CB  VAL A   2      13.878   6.281  23.067  0.00  0.00    +0.026 C 
ATOM     12  CG2 VAL A   2      12.582   5.560  22.755  0.00  0.00    +0.002 C 
ATOM     13  CG1 VAL A   2      14.601   6.708  21.792  0.00  0.00    +0.002 C 
ENDBRANCH  10  11
BRANCH  10  14
ATOM     14  C   VAL A   2      12.843   7.033  25.188  0.00  0.00    +0.227 C 
ATOM     15  O   VAL A   2      13.388   6.430  26.111  0.00  0.00    -0.286 OA
ENDBRANCH  10  14
ENDBRANCH   2  10
TORSDOF 6
REMARK  Name = ../refined-set-2016/2q38/2q38_pocket.pdb
REMARK  149 active torsions:
REMARK  status: ('A' for Active; 'I' for Inactive)
REMARK    1  A    between atoms: _1  and  _3
REMARK    2  A    between atoms: _3  and  _4
REMARK    3  A    between atoms: _3  and  _6
REMARK    4  A    between atoms: _6  and  _7
REMARK    5  A    between atoms: _17  and  _19
REMARK    6  A    between atoms: _19  and  _20
REMARK    7  A    between atoms: _19  and  _22
REMARK    8  A    between atoms: _22  and  _23
REMARK    9  A    between atoms: _28  and  _29
REMARK   10  A    between atoms: _31  and  _33
REMARK   11  A    between atoms: _33  and  _34
REMARK   12  A    between atoms: _33  and  _36
REMARK   13  A    between atoms: _36  and  _37
REMARK   14  A    between atoms: _40  and  _41
REMARK   15  A    between atoms: _46  and  _48
REMARK   16  A    between atoms: _48  and  _49
REMARK   17  A    between atoms: _48  and  _51
REMARK   18  A    between atoms: _51  and  _52
REMARK   19  A    between atoms: _57  and  _59
REMARK   20  A    between atoms: _59  and  _60
REMARK   21  A    between atoms: _59  and  _62
REMARK   22  A    between atoms: _62  and  _63
REMARK   23  A    between atoms: _68  and  _70
REMARK   24  A    between atoms: _70  and  _71
REMARK   25  A    between atoms: _74  and  _76
REMARK   26  A    between atoms: _76  and  _77
REMARK   27  A    between atoms: _76  and  _79
REMARK   28  A    between atoms: _79  and  _80
REMARK   29  A    between atoms: _85  and  _87
REMARK   30  A    between atoms: _87  and  _88
REMARK   31  A    between atoms: _87  and  _90
REMARK   32  A    between atoms: _90  and  _91
REMARK   33  A    between atoms: _94  and  _96
REMARK   34  A    between atoms: _96  and  _97
REMARK   35  A    between atoms: _96  and  _99
REMARK   36  A    between atoms: _99  and  _100
REMARK   37  A    between atoms: _100  and  _101
REMARK   38  A    between atoms: _106  and  _108
REMARK   39  A    between atoms: _108  and  _109
REMARK   40  A    between atoms: _108  and  _111
REMARK   41  A    between atoms: _111  and  _112
REMARK   42  A    between atoms: _118  and  _120
REMARK   43  A    between atoms: _131  and  _134
REMARK   44  A    between atoms: _134  and  _135
REMARK   45  A    between atoms: _143  and  _144
REMARK   46  A    between atoms: _152  and  _154
REMARK   47  A    between atoms: _154  and  _155
REMARK   48  A    between atoms: _154  and  _157
REMARK   49  A    between atoms: _157  and  _158
REMARK   50  A    between atoms: _158  and  _159
REMARK   51  A    between atoms: _162  and  _164
REMARK   52  A    between atoms: _164  and  _165
REMARK   53  A    between atoms: _164  and  _167
REMARK   54  A    between atoms: _167  and  _168
REMARK   55  A    between atoms: _173  and  _175
REMARK   56  A    between atoms: _175  and  _176
REMARK   57  A    between atoms: _175  and  _178
REMARK   58  A    between atoms: _178  and  _179
REMARK   59  A    between atoms: _179  and  _180
REMARK   60  A    between atoms: _183  and  _185
REMARK   61  A    between atoms: _185  and  _186
REMARK   62  A    between atoms: _185  and  _188
REMARK   63  A    between atoms: _188  and  _189
REMARK   64  A    between atoms: _192  and  _194
REMARK   65  A    between atoms: _194  and  _195
REMARK   66  A    between atoms: _194  and  _197
REMARK   67  A    between atoms: _197  and  _198
REMARK   68  A    between atoms: _199  and  ZN_419
REMARK   69  A    between atoms: _203  and  _205
REMARK   70  A    between atoms: _205  and  _206
REMARK   71  A    between atoms: _205  and  _208
REMARK   72  A    between atoms: _208  and  _209
REMARK   73  A    between atoms: _212  and  _214
REMARK   74  A    between atoms: _214  and  _215
REMARK   75  A    between atoms: _214  and  _217
REMARK   76  A    between atoms: _220  and  _222
REMARK   77  A    between atoms: _222  and  _223
REMARK   78  A    between atoms: _222  and  _225
REMARK   79  A    between atoms: _225  and  _226
REMARK   80  A    between atoms: _231  and  _233
REMARK   81  A    between atoms: _233  and  _234
REMARK   82  A    between atoms: _233  and  _236
REMARK   83  A    between atoms: _236  and  _237
REMARK   84  A    between atoms: _243  and  _245
REMARK   85  A    between atoms: _245  and  _246
REMARK   86  A    between atoms: _245  and  _248
REMARK   87  A    between atoms: _251  and  _253
REMARK   88  A    between atoms: _253  and  _254
REMARK   89  A    between atoms: _253  and  _256
REMARK   90  A    between atoms: _256  and  _257
REMARK   91  A    between atoms: _260  and  _262
REMARK   92  A    between atoms: _262  and  _263
REMARK   93  A    between atoms: _266  and  _268
REMARK   94  A    between atoms: _268  and  _269
REMARK   95  A    between atoms: _268  and  _271
REMARK   96  A    between atoms: _274  and  _276
REMARK   97  A    between atoms: _276  and  _277
REMARK   98  A    between atoms: _276  and  _279
REMARK   99  A    between atoms: _279  and  _280
REMARK  100  A    between atoms: _283  and  _285
REMARK  101  A    between atoms: _285  and  _286
REMARK  102  A    between atoms: _288  and  _290
REMARK  103  A    between atoms: _290  and  _291
REMARK  104  A    between atoms: _293  and  _295
REMARK  105  A    between atoms: _295  and  _296
REMARK  106  A    between atoms: _295  and  _298
REMARK  107  A    between atoms: _298  and  _299
REMARK  108  A    between atoms: _301  and  _303
REMARK  109  A    between atoms: _303  and  _304
REMARK  110  A    between atoms: _303  and  _306
REMARK  111  A    between atoms: _306  and  _307
REMARK  112  A    between atoms: _310  and  _312
REMARK  113  A    between atoms: _312  and  _313
REMARK  114  A    between atoms: _312  and  _315
REMARK  115  A    between atoms: _315  and  _316
REMARK  116  A    between atoms: _319  and  _321
REMARK  117  A    between atoms: _321  and  _322
REMARK  118  A    between atoms: _321  and  _324
REMARK  119  A    between atoms: _324  and  _325
REMARK  120  A    between atoms: _329  and  _330
REMARK  121  A    between atoms: _336  and  _337
REMARK  122  A    between atoms: _342  and  _344
REMARK  123  A    between atoms: _344  and  _345
REMARK  124  A    between atoms: _344  and  _347
REMARK  125  A    between atoms: _347  and  _348
REMARK  126  A    between atoms: _351  and  _353
REMARK  127  A    between atoms: _353  and  _354
REMARK  128  A    between atoms: _353  and  _356
REMARK  129  A    between atoms: _356  and  _357
REMARK  130  A    between atoms: _360  and  _362
REMARK  131  A    between atoms: _362  and  _363
REMARK  132  A    between atoms: _362  and  _365
REMARK  133  A    between atoms: _367  and  _369
REMARK  134  A    between atoms: _369  and  _370
REMARK  135  A    between atoms: _369  and  _372
REMARK  136  A    between atoms: _375  and  _377
REMARK  137  A    between atoms: _377  and  _378
REMARK  138  A    between atoms: _377  and  _380
REMARK  139  A    between atoms: _380  and  _381
REMARK  140  A    between atoms: _391  and  _393
REMARK  141  A    between atoms: _393  and  _394
REMARK  142  A    between atoms: _393  and  _396
REMARK  143  A    between atoms: _396  and  _397
REMARK  144  A    between atoms: _402  and  _404
REMARK  145  A    between atoms: _404  and  _405
REMARK  146  A    between atoms: _404  and  _407
REMARK  147  A    between atoms: _407  and  _408
REMARK  148  A    between atoms: _408  and  _409
REMARK  149  A    between atoms: _409  and  _410
REMARK                            x       y       z     vdW  Elec       q    Type
REMARK                         _______ _______ _______ _____ _____    ______ ____
ROOT
ATOM      1  CG  TRP A   1      12.102   2.043  24.193  0.00  0.00    -0.002 A 
ATOM      2  CD1 TRP A   1      13.341   2.574  24.374  0.00  0.00    +0.068 A 
ATOM      3  NE1 TRP A   1      14.069   2.503  23.197  0.00  0.00    -0.352 N 
ATOM      4  HE1 TRP A   1      15.042   2.845  23.067  0.00  0.00    +0.166 HD
ATOM      5  CE2 TRP A   1      13.303   1.912  22.238  0.00  0.00    +0.056 A 
ATOM      6  CZ2 TRP A   1      13.596   1.619  20.901  0.00  0.00    +0.017 A 
ATOM      7  CH2 TRP A   1      12.599   1.015  20.181  0.00  0.00    +0.001 A 
ATOM      8  CZ3 TRP A   1      11.351   0.707  20.738  0.00  0.00    +0.000 A 
ATOM      9  CE3 TRP A   1      11.064   1.000  22.055  0.00  0.00    +0.001 A 
ATOM     10  CD2 TRP A   1      12.057   1.612  22.825  0.00  0.00    +0.013 A 
ENDROOT
BRANCH   1  11
ATOM     11  CB  TRP A   1      10.980   1.913  25.187  0.00  0.00    +0.053 C 
BRANCH  11  12
ATOM     12  CA  TRP A   1       9.948   3.039  25.024  0.00  0.00    +0.137 C 
BRANCH  12  13
ATOM     13  N   TRP A   1      10.354   4.263  25.700  0.00  0.00    -0.239 NA
ATOM     14  H   TRP A   1      10.900   4.202  26.583  0.00  0.00    +0.142 HD
ENDBRANCH  12  13
BRANCH  12  15
ATOM     15  C   TRP A   1       8.575   2.602  25.535  0.00  0.00    +0.224 C 
ATOM     16  O   TRP A   1       8.331   2.614  26.746  0.00  0.00    -0.287 OA
ENDBRANCH  12  15
ENDBRANCH  11  12
ENDBRANCH   1  11
TORSDOF 4
REMARK  Name = ../refined-set-2016/2q38/2q38_pocket.pdb
REMARK  149 active torsions:
REMARK  status: ('A' for Active; 'I' for Inactive)
REMARK    1  A    between atoms: _1  and  _3
REMARK    2  A    between atoms: _3  and  _4
REMARK    3  A    between atoms: _3  and  _6
REMARK    4  A    between atoms: _6  and  _7
REMARK    5  A    between atoms: _17  and  _19
REMARK    6  A    between atoms: _19  and  _20
REMARK    7  A    between atoms: _19  and  _22
REMARK    8  A    between atoms: _22  and  _23
REMARK    9  A    between atoms: _28  and  _29
REMARK   10  A    between atoms: _31  and  _33
REMARK   11  A    between atoms: _33  and  _34
REMARK   12  A    between atoms: _33  and  _36
REMARK   13  A    between atoms: _36  and  _37
REMARK   14  A    between atoms: _40  and  _41
REMARK   15  A    between atoms: _46  and  _48
REMARK   16  A    between atoms: _48  and  _49
REMARK   17  A    between atoms: _48  and  _51
REMARK   18  A    between atoms: _51  and  _52
REMARK   19  A    between atoms: _57  and  _59
REMARK   20  A    between atoms: _59  and  _60
REMARK   21  A    between atoms: _59  and  _62
REMARK   22  A    between atoms: _62  and  _63
REMARK   23  A    between atoms: _68  and  _70
REMARK   24  A    between atoms: _70  and  _71
REMARK   25  A    between atoms: _74  and  _76
REMARK   26  A    between atoms: _76  and  _77
REMARK   27  A    between atoms: _76  and  _79
REMARK   28  A    between atoms: _79  and  _80
REMARK   29  A    between atoms: _85  and  _87
REMARK   30  A    between atoms: _87  and  _88
REMARK   31  A    between atoms: _87  and  _90
REMARK   32  A    between atoms: _90  and  _91
REMARK   33  A    between atoms: _94  and  _96
REMARK   34  A    between atoms: _96  and  _97
REMARK   35  A    between atoms: _96  and  _99
REMARK   36  A    between atoms: _99  and  _100
REMARK   37  A    between atoms: _100  and  _101
REMARK   38  A    between atoms: _106  and  _108
REMARK   39  A    between atoms: _108  and  _109
REMARK   40  A    between atoms: _108  and  _111
REMARK   41  A    between atoms: _111  and  _112
REMARK   42  A    between atoms: _118  and  _120
REMARK   43  A    between atoms: _131  and  _134
REMARK   44  A    between atoms: _134  and  _135
REMARK   45  A    between atoms: _143  and  _144
REMARK   46  A    between atoms: _152  and  _154
REMARK   47  A    between atoms: _154  and  _155
REMARK   48  A    between atoms: _154  and  _157
REMARK   49  A    between atoms: _157  and  _158
REMARK   50  A    between atoms: _158  and  _159
REMARK   51  A    between atoms: _162  and  _164
REMARK   52  A    between atoms: _164  and  _165
REMARK   53  A    between atoms: _164  and  _167
REMARK   54  A    between atoms: _167  and  _168
REMARK   55  A    between atoms: _173  and  _175
REMARK   56  A    between atoms: _175  and  _176
REMARK   57  A    between atoms: _175  and  _178
REMARK   58  A    between atoms: _178  and  _179
REMARK   59  A    between atoms: _179  and  _180
REMARK   60  A    between atoms: _183  and  _185
REMARK   61  A    between atoms: _185  and  _186
REMARK   62  A    between atoms: _185  and  _188
REMARK   63  A    between atoms: _188  and  _189
REMARK   64  A    between atoms: _192  and  _194
REMARK   65  A    between atoms: _194  and  _195
REMARK   66  A    between atoms: _194  and  _197
REMARK   67  A    between atoms: _197  and  _198
REMARK   68  A    between atoms: _199  and  ZN_419
REMARK   69  A    between atoms: _203  and  _205
REMARK   70  A    between atoms: _205  and  _206
REMARK   71  A    between atoms: _205  and  _208
REMARK   72  A    between atoms: _208  and  _209
REMARK   73  A    between atoms: _212  and  _214
REMARK   74  A    between atoms: _214  and  _215
REMARK   75  A    between atoms: _214  and  _217
REMARK   76  A    between atoms: _220  and  _222
REMARK   77  A    between atoms: _222  and  _223
REMARK   78  A    between atoms: _222  and  _225
REMARK   79  A    between atoms: _225  and  _226
REMARK   80  A    between atoms: _231  and  _233
REMARK   81  A    between atoms: _233  and  _234
REMARK   82  A    between atoms: _233  and  _236
REMARK   83  A    between atoms: _236  and  _237
REMARK   84  A    between atoms: _243  and  _245
REMARK   85  A    between atoms: _245  and  _246
REMARK   86  A    between atoms: _245  and  _248
REMARK   87  A    between atoms: _251  and  _253
REMARK   88  A    between atoms: _253  and  _254
REMARK   89  A    between atoms: _253  and  _256
REMARK   90  A    between atoms: _256  and  _257
REMARK   91  A    between atoms: _260  and  _262
REMARK   92  A    between atoms: _262  and  _263
REMARK   93  A    between atoms: _266  and  _268
REMARK   94  A    between atoms: _268  and  _269
REMARK   95  A    between atoms: _268  and  _271
REMARK   96  A    between atoms: _274  and  _276
REMARK   97  A    between atoms: _276  and  _277
REMARK   98  A    between atoms: _276  and  _279
REMARK   99  A    between atoms: _279  and  _280
REMARK  100  A    between atoms: _283  and  _285
REMARK  101  A    between atoms: _285  and  _286
REMARK  102  A    between atoms: _288  and  _290
REMARK  103  A    between atoms: _290  and  _291
REMARK  104  A    between atoms: _293  and  _295
REMARK  105  A    between atoms: _295  and  _296
REMARK  106  A    between atoms: _295  and  _298
REMARK  107  A    between atoms: _298  and  _299
REMARK  108  A    between atoms: _301  and  _303
REMARK  109  A    between atoms: _303  and  _304
REMARK  110  A    between atoms: _303  and  _306
REMARK  111  A    between atoms: _306  and  _307
REMARK  112  A    between atoms: _310  and  _312
REMARK  113  A    between atoms: _312  and  _313
REMARK  114  A    between atoms: _312  and  _315
REMARK  115  A    between atoms: _315  and  _316
REMARK  116  A    between atoms: _319  and  _321
REMARK  117  A    between atoms: _321  and  _322
REMARK  118  A    between atoms: _321  and  _324
REMARK  119  A    between atoms: _324  and  _325
REMARK  120  A    between atoms: _329  and  _330
REMARK  121  A    between atoms: _336  and  _337
REMARK  122  A    between atoms: _342  and  _344
REMARK  123  A    between atoms: _344  and  _345
REMARK  124  A    between atoms: _344  and  _347
REMARK  125  A    between atoms: _347  and  _348
REMARK  126  A    between atoms: _351  and  _353
REMARK  127  A    between atoms: _353  and  _354
REMARK  128  A    between atoms: _353  and  _356
REMARK  129  A    between atoms: _356  and  _357
REMARK  130  A    between atoms: _360  and  _362
REMARK  131  A    between atoms: _362  and  _363
REMARK  132  A    between atoms: _362  and  _365
REMARK  133  A    between atoms: _367  and  _369
REMARK  134  A    between atoms: _369  and  _370
REMARK  135  A    between atoms: _369  and  _372
REMARK  136  A    between atoms: _375  and  _377
REMARK  137  A    between atoms: _377  and  _378
REMARK  138  A    between atoms: _377  and  _380
REMARK  139  A    between atoms: _380  and  _381
REMARK  140  A    between atoms: _391  and  _393
REMARK  141  A    between atoms: _393  and  _394
REMARK  142  A    between atoms: _393  and  _396
REMARK  143  A    between atoms: _396  and  _397
REMARK  144  A    between atoms: _402  and  _404
REMARK  145  A    between atoms: _404  and  _405
REMARK  146  A    between atoms: _404  and  _407
REMARK  147  A    between atoms: _407  and  _408
REMARK  148  A    between atoms: _408  and  _409
REMARK  149  A    between atoms: _409  and  _410
REMARK                            x       y       z     vdW  Elec       q    Type
REMARK                         _______ _______ _______ _____ _____    ______ ____
ROOT
ATOM      1  CB  ASN A   1      19.009  -5.402  10.431  0.00  0.00    +0.110 C 
ENDROOT
BRANCH   1   2
ATOM      2  CG  ASN A   1      17.526  -5.539  10.191  0.00  0.00    +0.221 C 
ATOM      3  OD1 ASN A   1      16.850  -6.377  10.782  0.00  0.00    -0.275 OA
ATOM      4  ND2 ASN A   1      16.985  -4.711   9.308  0.00  0.00    -0.329 N 
ATOM      5 HD21 ASN A   1      15.967  -4.763   9.103  0.00  0.00    +0.145 HD
ATOM      6 HD22 ASN A   1      17.579  -4.010   8.821  0.00  0.00    +0.145 HD
ENDBRANCH   1   2
BRANCH   1   7
ATOM      7  CA  ASN A   1      19.516  -6.299  11.558  0.00  0.00    +0.142 C 
BRANCH   7   8
ATOM      8  N   ASN A   1      19.197  -7.696  11.274  0.00  0.00    -0.239 NA
ATOM      9  H   ASN A   1      18.336  -7.931  10.739  0.00  0.00    +0.142 HD
ENDBRANCH   7   8
BRANCH   7  10
ATOM     10  C   ASN A   1      18.930  -5.881  12.903  0.00  0.00    +0.225 C 
ATOM     11  O   ASN A   1      18.205  -4.895  12.976  0.00  0.00    -0.287 OA
ENDBRANCH   7  10
ENDBRANCH   1   7
TORSDOF 4
REMARK  Name = ../refined-set-2016/2q38/2q38_pocket.pdb
REMARK  149 active torsions:
REMARK  status: ('A' for Active; 'I' for Inactive)
REMARK    1  A    between atoms: _1  and  _3
REMARK    2  A    between atoms: _3  and  _4
REMARK    3  A    between atoms: _3  and  _6
REMARK    4  A    between atoms: _6  and  _7
REMARK    5  A    between atoms: _17  and  _19
REMARK    6  A    between atoms: _19  and  _20
REMARK    7  A    between atoms: _19  and  _22
REMARK    8  A    between atoms: _22  and  _23
REMARK    9  A    between atoms: _28  and  _29
REMARK   10  A    between atoms: _31  and  _33
REMARK   11  A    between atoms: _33  and  _34
REMARK   12  A    between atoms: _33  and  _36
REMARK   13  A    between atoms: _36  and  _37
REMARK   14  A    between atoms: _40  and  _41
REMARK   15  A    between atoms: _46  and  _48
REMARK   16  A    between atoms: _48  and  _49
REMARK   17  A    between atoms: _48  and  _51
REMARK   18  A    between atoms: _51  and  _52
REMARK   19  A    between atoms: _57  and  _59
REMARK   20  A    between atoms: _59  and  _60
REMARK   21  A    between atoms: _59  and  _62
REMARK   22  A    between atoms: _62  and  _63
REMARK   23  A    between atoms: _68  and  _70
REMARK   24  A    between atoms: _70  and  _71
REMARK   25  A    between atoms: _74  and  _76
REMARK   26  A    between atoms: _76  and  _77
REMARK   27  A    between atoms: _76  and  _79
REMARK   28  A    between atoms: _79  and  _80
REMARK   29  A    between atoms: _85  and  _87
REMARK   30  A    between atoms: _87  and  _88
REMARK   31  A    between atoms: _87  and  _90
REMARK   32  A    between atoms: _90  and  _91
REMARK   33  A    between atoms: _94  and  _96
REMARK   34  A    between atoms: _96  and  _97
REMARK   35  A    between atoms: _96  and  _99
REMARK   36  A    between atoms: _99  and  _100
REMARK   37  A    between atoms: _100  and  _101
REMARK   38  A    between atoms: _106  and  _108
REMARK   39  A    between atoms: _108  and  _109
REMARK   40  A    between atoms: _108  and  _111
REMARK   41  A    between atoms: _111  and  _112
REMARK   42  A    between atoms: _118  and  _120
REMARK   43  A    between atoms: _131  and  _134
REMARK   44  A    between atoms: _134  and  _135
REMARK   45  A    between atoms: _143  and  _144
REMARK   46  A    between atoms: _152  and  _154
REMARK   47  A    between atoms: _154  and  _155
REMARK   48  A    between atoms: _154  and  _157
REMARK   49  A    between atoms: _157  and  _158
REMARK   50  A    between atoms: _158  and  _159
REMARK   51  A    between atoms: _162  and  _164
REMARK   52  A    between atoms: _164  and  _165
REMARK   53  A    between atoms: _164  and  _167
REMARK   54  A    between atoms: _167  and  _168
REMARK   55  A    between atoms: _173  and  _175
REMARK   56  A    between atoms: _175  and  _176
REMARK   57  A    between atoms: _175  and  _178
REMARK   58  A    between atoms: _178  and  _179
REMARK   59  A    between atoms: _179  and  _180
REMARK   60  A    between atoms: _183  and  _185
REMARK   61  A    between atoms: _185  and  _186
REMARK   62  A    between atoms: _185  and  _188
REMARK   63  A    between atoms: _188  and  _189
REMARK   64  A    between atoms: _192  and  _194
REMARK   65  A    between atoms: _194  and  _195
REMARK   66  A    between atoms: _194  and  _197
REMARK   67  A    between atoms: _197  and  _198
REMARK   68  A    between atoms: _199  and  ZN_419
REMARK   69  A    between atoms: _203  and  _205
REMARK   70  A    between atoms: _205  and  _206
REMARK   71  A    between atoms: _205  and  _208
REMARK   72  A    between atoms: _208  and  _209
REMARK   73  A    between atoms: _212  and  _214
REMARK   74  A    between atoms: _214  and  _215
REMARK   75  A    between atoms: _214  and  _217
REMARK   76  A    between atoms: _220  and  _222
REMARK   77  A    between atoms: _222  and  _223
REMARK   78  A    between atoms: _222  and  _225
REMARK   79  A    between atoms: _225  and  _226
REMARK   80  A    between atoms: _231  and  _233
REMARK   81  A    between atoms: _233  and  _234
REMARK   82  A    between atoms: _233  and  _236
REMARK   83  A    between atoms: _236  and  _237
REMARK   84  A    between atoms: _243  and  _245
REMARK   85  A    between atoms: _245  and  _246
REMARK   86  A    between atoms: _245  and  _248
REMARK   87  A    between atoms: _251  and  _253
REMARK   88  A    between atoms: _253  and  _254
REMARK   89  A    between atoms: _253  and  _256
REMARK   90  A    between atoms: _256  and  _257
REMARK   91  A    between atoms: _260  and  _262
REMARK   92  A    between atoms: _262  and  _263
REMARK   93  A    between atoms: _266  and  _268
REMARK   94  A    between atoms: _268  and  _269
REMARK   95  A    between atoms: _268  and  _271
REMARK   96  A    between atoms: _274  and  _276
REMARK   97  A    between atoms: _276  and  _277
REMARK   98  A    between atoms: _276  and  _279
REMARK   99  A    between atoms: _279  and  _280
REMARK  100  A    between atoms: _283  and  _285
REMARK  101  A    between atoms: _285  and  _286
REMARK  102  A    between atoms: _288  and  _290
REMARK  103  A    between atoms: _290  and  _291
REMARK  104  A    between atoms: _293  and  _295
REMARK  105  A    between atoms: _295  and  _296
REMARK  106  A    between atoms: _295  and  _298
REMARK  107  A    between atoms: _298  and  _299
REMARK  108  A    between atoms: _301  and  _303
REMARK  109  A    between atoms: _303  and  _304
REMARK  110  A    between atoms: _303  and  _306
REMARK  111  A    between atoms: _306  and  _307
REMARK  112  A    between atoms: _310  and  _312
REMARK  113  A    between atoms: _312  and  _313
REMARK  114  A    between atoms: _312  and  _315
REMARK  115  A    between atoms: _315  and  _316
REMARK  116  A    between atoms: _319  and  _321
REMARK  117  A    between atoms: _321  and  _322
REMARK  118  A    between atoms: _321  and  _324
REMARK  119  A    between atoms: _324  and  _325
REMARK  120  A    between atoms: _329  and  _330
REMARK  121  A    between atoms: _336  and  _337
REMARK  122  A    between atoms: _342  and  _344
REMARK  123  A    between atoms: _344  and  _345
REMARK  124  A    between atoms: _344  and  _347
REMARK  125  A    between atoms: _347  and  _348
REMARK  126  A    between atoms: _351  and  _353
REMARK  127  A    between atoms: _353  and  _354
REMARK  128  A    between atoms: _353  and  _356
REMARK  129  A    between atoms: _356  and  _357
REMARK  130  A    between atoms: _360  and  _362
REMARK  131  A    between atoms: _362  and  _363
REMARK  132  A    between atoms: _362  and  _365
REMARK  133  A    between atoms: _367  and  _369
REMARK  134  A    between atoms: _369  and  _370
REMARK  135  A    between atoms: _369  and  _372
REMARK  136  A    between atoms: _375  and  _377
REMARK  137  A    between atoms: _377  and  _378
REMARK  138  A    between atoms: _377  and  _380
REMARK  139  A    between atoms: _380  and  _381
REMARK  140  A    between atoms: _391  and  _393
REMARK  141  A    between atoms: _393  and  _394
REMARK  142  A    between atoms: _393  and  _396
REMARK  143  A    between atoms: _396  and  _397
REMARK  144  A    between atoms: _402  and  _404
REMARK  145  A    between atoms: _404  and  _405
REMARK  146  A    between atoms: _404  and  _407
REMARK  147  A    between atoms: _407  and  _408
REMARK  148  A    between atoms: _408  and  _409
REMARK  149  A    between atoms: _409  and  _410
REMARK                            x       y       z     vdW  Elec       q    Type
REMARK                         _______ _______ _______ _____ _____    ______ ____
ROOT
ATOM      1  NE  ARG A   1      23.144  -1.879  21.122  0.00  0.00    -0.265 N 
ATOM      2  CZ  ARG A   1      23.346  -0.861  21.941  0.00  0.00    +0.342 C 
ATOM      3  NH2 ARG A   1      24.585  -0.642  22.384  0.00  0.00    -0.292 N 
ATOM      4 HH21 ARG A   1      24.774   0.151  23.029  0.00  0.00    +0.255 HD
ATOM      5 HH22 ARG A   1      25.362  -1.265  22.084  0.00  0.00    +0.255 HD
ATOM      6  NH1 ARG A   1      22.375  -0.050  22.342  0.00  0.00    -0.292 N 
ATOM      7 HH11 ARG A   1      22.588   0.737  22.988  0.00  0.00    +0.255 HD
ATOM      8 HH12 ARG A   1      21.401  -0.201  22.011  0.00  0.00    +0.255 HD
ATOM      9  HE  ARG A   1      23.987  -2.441  20.886  0.00  0.00    +0.259 HD
ENDROOT
BRANCH   1  10
ATOM     10  CD  ARG A   1      21.902  -2.319  20.506  0.00  0.00    +0.174 C 
BRANCH  10  11
ATOM     11  CG  ARG A   1      21.973  -3.747  19.979  0.00  0.00    +0.045 C 
BRANCH  11  12
ATOM     12  CB  ARG A   1      21.114  -3.880  18.726  0.00  0.00    +0.029 C 
BRANCH  12  13
ATOM     13  CA  ARG A   1      20.819  -5.315  18.298  0.00  0.00    +0.133 C 
BRANCH  13  14
ATOM     14  N   ARG A   1      19.771  -5.352  17.271  0.00  0.00    -0.239 NA
ATOM     15  H   ARG A   1      18.955  -4.709  17.321  0.00  0.00    +0.142 HD
ENDBRANCH  13  14
BRANCH  13  16
ATOM     16  C   ARG A   1      20.404  -6.164  19.489  0.00  0.00    +0.224 C 
ATOM     17  O   ARG A   1      19.241  -6.149  19.915  0.00  0.00    -0.287 OA
ENDBRANCH  13  16
ENDBRANCH  12  13
ENDBRANCH  11  12
ENDBRANCH  10  11
ENDBRANCH   1  10
TORSDOF 6
REMARK  Name = ../refined-set-2016/2q38/2q38_pocket.pdb
REMARK  149 active torsions:
REMARK  status: ('A' for Active; 'I' for Inactive)
REMARK    1  A    between atoms: _1  and  _3
REMARK    2  A    between atoms: _3  and  _4
REMARK    3  A    between atoms: _3  and  _6
REMARK    4  A    between atoms: _6  and  _7
REMARK    5  A    between atoms: _17  and  _19
REMARK    6  A    between atoms: _19  and  _20
REMARK    7  A    between atoms: _19  and  _22
REMARK    8  A    between atoms: _22  and  _23
REMARK    9  A    between atoms: _28  and  _29
REMARK   10  A    between atoms: _31  and  _33
REMARK   11  A    between atoms: _33  and  _34
REMARK   12  A    between atoms: _33  and  _36
REMARK   13  A    between atoms: _36  and  _37
REMARK   14  A    between atoms: _40  and  _41
REMARK   15  A    between atoms: _46  and  _48
REMARK   16  A    between atoms: _48  and  _49
REMARK   17  A    between atoms: _48  and  _51
REMARK   18  A    between atoms: _51  and  _52
REMARK   19  A    between atoms: _57  and  _59
REMARK   20  A    between atoms: _59  and  _60
REMARK   21  A    between atoms: _59  and  _62
REMARK   22  A    between atoms: _62  and  _63
REMARK   23  A    between atoms: _68  and  _70
REMARK   24  A    between atoms: _70  and  _71
REMARK   25  A    between atoms: _74  and  _76
REMARK   26  A    between atoms: _76  and  _77
REMARK   27  A    between atoms: _76  and  _79
REMARK   28  A    between atoms: _79  and  _80
REMARK   29  A    between atoms: _85  and  _87
REMARK   30  A    between atoms: _87  and  _88
REMARK   31  A    between atoms: _87  and  _90
REMARK   32  A    between atoms: _90  and  _91
REMARK   33  A    between atoms: _94  and  _96
REMARK   34  A    between atoms: _96  and  _97
REMARK   35  A    between atoms: _96  and  _99
REMARK   36  A    between atoms: _99  and  _100
REMARK   37  A    between atoms: _100  and  _101
REMARK   38  A    between atoms: _106  and  _108
REMARK   39  A    between atoms: _108  and  _109
REMARK   40  A    between atoms: _108  and  _111
REMARK   41  A    between atoms: _111  and  _112
REMARK   42  A    between atoms: _118  and  _120
REMARK   43  A    between atoms: _131  and  _134
REMARK   44  A    between atoms: _134  and  _135
REMARK   45  A    between atoms: _143  and  _144
REMARK   46  A    between atoms: _152  and  _154
REMARK   47  A    between atoms: _154  and  _155
REMARK   48  A    between atoms: _154  and  _157
REMARK   49  A    between atoms: _157  and  _158
REMARK   50  A    between atoms: _158  and  _159
REMARK   51  A    between atoms: _162  and  _164
REMARK   52  A    between atoms: _164  and  _165
REMARK   53  A    between atoms: _164  and  _167
REMARK   54  A    between atoms: _167  and  _168
REMARK   55  A    between atoms: _173  and  _175
REMARK   56  A    between atoms: _175  and  _176
REMARK   57  A    between atoms: _175  and  _178
REMARK   58  A    between atoms: _178  and  _179
REMARK   59  A    between atoms: _179  and  _180
REMARK   60  A    between atoms: _183  and  _185
REMARK   61  A    between atoms: _185  and  _186
REMARK   62  A    between atoms: _185  and  _188
REMARK   63  A    between atoms: _188  and  _189
REMARK   64  A    between atoms: _192  and  _194
REMARK   65  A    between atoms: _194  and  _195
REMARK   66  A    between atoms: _194  and  _197
REMARK   67  A    between atoms: _197  and  _198
REMARK   68  A    between atoms: _199  and  ZN_419
REMARK   69  A    between atoms: _203  and  _205
REMARK   70  A    between atoms: _205  and  _206
REMARK   71  A    between atoms: _205  and  _208
REMARK   72  A    between atoms: _208  and  _209
REMARK   73  A    between atoms: _212  and  _214
REMARK   74  A    between atoms: _214  and  _215
REMARK   75  A    between atoms: _214  and  _217
REMARK   76  A    between atoms: _220  and  _222
REMARK   77  A    between atoms: _222  and  _223
REMARK   78  A    between atoms: _222  and  _225
REMARK   79  A    between atoms: _225  and  _226
REMARK   80  A    between atoms: _231  and  _233
REMARK   81  A    between atoms: _233  and  _234
REMARK   82  A    between atoms: _233  and  _236
REMARK   83  A    between atoms: _236  and  _237
REMARK   84  A    between atoms: _243  and  _245
REMARK   85  A    between atoms: _245  and  _246
REMARK   86  A    between atoms: _245  and  _248
REMARK   87  A    between atoms: _251  and  _253
REMARK   88  A    between atoms: _253  and  _254
REMARK   89  A    between atoms: _253  and  _256
REMARK   90  A    between atoms: _256  and  _257
REMARK   91  A    between atoms: _260  and  _262
REMARK   92  A    between atoms: _262  and  _263
REMARK   93  A    between atoms: _266  and  _268
REMARK   94  A    between atoms: _268  and  _269
REMARK   95  A    between atoms: _268  and  _271
REMARK   96  A    between atoms: _274  and  _276
REMARK   97  A    between atoms: _276  and  _277
REMARK   98  A    between atoms: _276  and  _279
REMARK   99  A    between atoms: _279  and  _280
REMARK  100  A    between atoms: _283  and  _285
REMARK  101  A    between atoms: _285  and  _286
REMARK  102  A    between atoms: _288  and  _290
REMARK  103  A    between atoms: _290  and  _291
REMARK  104  A    between atoms: _293  and  _295
REMARK  105  A    between atoms: _295  and  _296
REMARK  106  A    between atoms: _295  and  _298
REMARK  107  A    between atoms: _298  and  _299
REMARK  108  A    between atoms: _301  and  _303
REMARK  109  A    between atoms: _303  and  _304
REMARK  110  A    between atoms: _303  and  _306
REMARK  111  A    between atoms: _306  and  _307
REMARK  112  A    between atoms: _310  and  _312
REMARK  113  A    between atoms: _312  and  _313
REMARK  114  A    between atoms: _312  and  _315
REMARK  115  A    between atoms: _315  and  _316
REMARK  116  A    between atoms: _319  and  _321
REMARK  117  A    between atoms: _321  and  _322
REMARK  118  A    between atoms: _321  and  _324
REMARK  119  A    between atoms: _324  and  _325
REMARK  120  A    between atoms: _329  and  _330
REMARK  121  A    between atoms: _336  and  _337
REMARK  122  A    between atoms: _342  and  _344
REMARK  123  A    between atoms: _344  and  _345
REMARK  124  A    between atoms: _344  and  _347
REMARK  125  A    between atoms: _347  and  _348
REMARK  126  A    between atoms: _351  and  _353
REMARK  127  A    between atoms: _353  and  _354
REMARK  128  A    between atoms: _353  and  _356
REMARK  129  A    between atoms: _356  and  _357
REMARK  130  A    between atoms: _360  and  _362
REMARK  131  A    between atoms: _362  and  _363
REMARK  132  A    between atoms: _362  and  _365
REMARK  133  A    between atoms: _367  and  _369
REMARK  134  A    between atoms: _369  and  _370
REMARK  135  A    between atoms: _369  and  _372
REMARK  136  A    between atoms: _375  and  _377
REMARK  137  A    between atoms: _377  and  _378
REMARK  138  A    between atoms: _377  and  _380
REMARK  139  A    between atoms: _380  and  _381
REMARK  140  A    between atoms: _391  and  _393
REMARK  141  A    between atoms: _393  and  _394
REMARK  142  A    between atoms: _393  and  _396
REMARK  143  A    between atoms: _396  and  _397
REMARK  144  A    between atoms: _402  and  _404
REMARK  145  A    between atoms: _404  and  _405
REMARK  146  A    between atoms: _404  and  _407
REMARK  147  A    between atoms: _407  and  _408
REMARK  148  A    between atoms: _408  and  _409
REMARK  149  A    between atoms: _409  and  _410
REMARK                            x       y       z     vdW  Elec       q    Type
REMARK                         _______ _______ _______ _____ _____    ______ ____
ROOT
ATOM      1  O   HOH     1      19.711  -2.319  15.706  0.00  0.00    +0.000 OA
ENDROOT
TORSDOF 0
REMARK  Name = ../refined-set-2016/2q38/2q38_pocket.pdb
REMARK  149 active torsions:
REMARK  status: ('A' for Active; 'I' for Inactive)
REMARK    1  A    between atoms: _1  and  _3
REMARK    2  A    between atoms: _3  and  _4
REMARK    3  A    between atoms: _3  and  _6
REMARK    4  A    between atoms: _6  and  _7
REMARK    5  A    between atoms: _17  and  _19
REMARK    6  A    between atoms: _19  and  _20
REMARK    7  A    between atoms: _19  and  _22
REMARK    8  A    between atoms: _22  and  _23
REMARK    9  A    between atoms: _28  and  _29
REMARK   10  A    between atoms: _31  and  _33
REMARK   11  A    between atoms: _33  and  _34
REMARK   12  A    between atoms: _33  and  _36
REMARK   13  A    between atoms: _36  and  _37
REMARK   14  A    between atoms: _40  and  _41
REMARK   15  A    between atoms: _46  and  _48
REMARK   16  A    between atoms: _48  and  _49
REMARK   17  A    between atoms: _48  and  _51
REMARK   18  A    between atoms: _51  and  _52
REMARK   19  A    between atoms: _57  and  _59
REMARK   20  A    between atoms: _59  and  _60
REMARK   21  A    between atoms: _59  and  _62
REMARK   22  A    between atoms: _62  and  _63
REMARK   23  A    between atoms: _68  and  _70
REMARK   24  A    between atoms: _70  and  _71
REMARK   25  A    between atoms: _74  and  _76
REMARK   26  A    between atoms: _76  and  _77
REMARK   27  A    between atoms: _76  and  _79
REMARK   28  A    between atoms: _79  and  _80
REMARK   29  A    between atoms: _85  and  _87
REMARK   30  A    between atoms: _87  and  _88
REMARK   31  A    between atoms: _87  and  _90
REMARK   32  A    between atoms: _90  and  _91
REMARK   33  A    between atoms: _94  and  _96
REMARK   34  A    between atoms: _96  and  _97
REMARK   35  A    between atoms: _96  and  _99
REMARK   36  A    between atoms: _99  and  _100
REMARK   37  A    between atoms: _100  and  _101
REMARK   38  A    between atoms: _106  and  _108
REMARK   39  A    between atoms: _108  and  _109
REMARK   40  A    between atoms: _108  and  _111
REMARK   41  A    between atoms: _111  and  _112
REMARK   42  A    between atoms: _118  and  _120
REMARK   43  A    between atoms: _131  and  _134
REMARK   44  A    between atoms: _134  and  _135
REMARK   45  A    between atoms: _143  and  _144
REMARK   46  A    between atoms: _152  and  _154
REMARK   47  A    between atoms: _154  and  _155
REMARK   48  A    between atoms: _154  and  _157
REMARK   49  A    between atoms: _157  and  _158
REMARK   50  A    between atoms: _158  and  _159
REMARK   51  A    between atoms: _162  and  _164
REMARK   52  A    between atoms: _164  and  _165
REMARK   53  A    between atoms: _164  and  _167
REMARK   54  A    between atoms: _167  and  _168
REMARK   55  A    between atoms: _173  and  _175
REMARK   56  A    between atoms: _175  and  _176
REMARK   57  A    between atoms: _175  and  _178
REMARK   58  A    between atoms: _178  and  _179
REMARK   59  A    between atoms: _179  and  _180
REMARK   60  A    between atoms: _183  and  _185
REMARK   61  A    between atoms: _185  and  _186
REMARK   62  A    between atoms: _185  and  _188
REMARK   63  A    between atoms: _188  and  _189
REMARK   64  A    between atoms: _192  and  _194
REMARK   65  A    between atoms: _194  and  _195
REMARK   66  A    between atoms: _194  and  _197
REMARK   67  A    between atoms: _197  and  _198
REMARK   68  A    between atoms: _199  and  ZN_419
REMARK   69  A    between atoms: _203  and  _205
REMARK   70  A    between atoms: _205  and  _206
REMARK   71  A    between atoms: _205  and  _208
REMARK   72  A    between atoms: _208  and  _209
REMARK   73  A    between atoms: _212  and  _214
REMARK   74  A    between atoms: _214  and  _215
REMARK   75  A    between atoms: _214  and  _217
REMARK   76  A    between atoms: _220  and  _222
REMARK   77  A    between atoms: _222  and  _223
REMARK   78  A    between atoms: _222  and  _225
REMARK   79  A    between atoms: _225  and  _226
REMARK   80  A    between atoms: _231  and  _233
REMARK   81  A    between atoms: _233  and  _234
REMARK   82  A    between atoms: _233  and  _236
REMARK   83  A    between atoms: _236  and  _237
REMARK   84  A    between atoms: _243  and  _245
REMARK   85  A    between atoms: _245  and  _246
REMARK   86  A    between atoms: _245  and  _248
REMARK   87  A    between atoms: _251  and  _253
REMARK   88  A    between atoms: _253  and  _254
REMARK   89  A    between atoms: _253  and  _256
REMARK   90  A    between atoms: _256  and  _257
REMARK   91  A    between atoms: _260  and  _262
REMARK   92  A    between atoms: _262  and  _263
REMARK   93  A    between atoms: _266  and  _268
REMARK   94  A    between atoms: _268  and  _269
REMARK   95  A    between atoms: _268  and  _271
REMARK   96  A    between atoms: _274  and  _276
REMARK   97  A    between atoms: _276  and  _277
REMARK   98  A    between atoms: _276  and  _279
REMARK   99  A    between atoms: _279  and  _280
REMARK  100  A    between atoms: _283  and  _285
REMARK  101  A    between atoms: _285  and  _286
REMARK  102  A    between atoms: _288  and  _290
REMARK  103  A    between atoms: _290  and  _291
REMARK  104  A    between atoms: _293  and  _295
REMARK  105  A    between atoms: _295  and  _296
REMARK  106  A    between atoms: _295  and  _298
REMARK  107  A    between atoms: _298  and  _299
REMARK  108  A    between atoms: _301  and  _303
REMARK  109  A    between atoms: _303  and  _304
REMARK  110  A    between atoms: _303  and  _306
REMARK  111  A    between atoms: _306  and  _307
REMARK  112  A    between atoms: _310  and  _312
REMARK  113  A    between atoms: _312  and  _313
REMARK  114  A    between atoms: _312  and  _315
REMARK  115  A    between atoms: _315  and  _316
REMARK  116  A    between atoms: _319  and  _321
REMARK  117  A    between atoms: _321  and  _322
REMARK  118  A    between atoms: _321  and  _324
REMARK  119  A    between atoms: _324  and  _325
REMARK  120  A    between atoms: _329  and  _330
REMARK  121  A    between atoms: _336  and  _337
REMARK  122  A    between atoms: _342  and  _344
REMARK  123  A    between atoms: _344  and  _345
REMARK  124  A    between atoms: _344  and  _347
REMARK  125  A    between atoms: _347  and  _348
REMARK  126  A    between atoms: _351  and  _353
REMARK  127  A    between atoms: _353  and  _354
REMARK  128  A    between atoms: _353  and  _356
REMARK  129  A    between atoms: _356  and  _357
REMARK  130  A    between atoms: _360  and  _362
REMARK  131  A    between atoms: _362  and  _363
REMARK  132  A    between atoms: _362  and  _365
REMARK  133  A    between atoms: _367  and  _369
REMARK  134  A    between atoms: _369  and  _370
REMARK  135  A    between atoms: _369  and  _372
REMARK  136  A    between atoms: _375  and  _377
REMARK  137  A    between atoms: _377  and  _378
REMARK  138  A    between atoms: _377  and  _380
REMARK  139  A    between atoms: _380  and  _381
REMARK  140  A    between atoms: _391  and  _393
REMARK  141  A    between atoms: _393  and  _394
REMARK  142  A    between atoms: _393  and  _396
REMARK  143  A    between atoms: _396  and  _397
REMARK  144  A    between atoms: _402  and  _404
REMARK  145  A    between atoms: _404  and  _405
REMARK  146  A    between atoms: _404  and  _407
REMARK  147  A    between atoms: _407  and  _408
REMARK  148  A    between atoms: _408  and  _409
REMARK  149  A    between atoms: _409  and  _410
REMARK                            x       y       z     vdW  Elec       q    Type
REMARK                         _______ _______ _______ _____ _____    ______ ____
ROOT
ATOM      1  O   HOH     1      19.600   4.483  10.897  0.00  0.00    +0.000 OA
ENDROOT
TORSDOF 0
REMARK  Name = ../refined-set-2016/2q38/2q38_pocket.pdb
REMARK  149 active torsions:
REMARK  status: ('A' for Active; 'I' for Inactive)
REMARK    1  A    between atoms: _1  and  _3
REMARK    2  A    between atoms: _3  and  _4
REMARK    3  A    between atoms: _3  and  _6
REMARK    4  A    between atoms: _6  and  _7
REMARK    5  A    between atoms: _17  and  _19
REMARK    6  A    between atoms: _19  and  _20
REMARK    7  A    between atoms: _19  and  _22
REMARK    8  A    between atoms: _22  and  _23
REMARK    9  A    between atoms: _28  and  _29
REMARK   10  A    between atoms: _31  and  _33
REMARK   11  A    between atoms: _33  and  _34
REMARK   12  A    between atoms: _33  and  _36
REMARK   13  A    between atoms: _36  and  _37
REMARK   14  A    between atoms: _40  and  _41
REMARK   15  A    between atoms: _46  and  _48
REMARK   16  A    between atoms: _48  and  _49
REMARK   17  A    between atoms: _48  and  _51
REMARK   18  A    between atoms: _51  and  _52
REMARK   19  A    between atoms: _57  and  _59
REMARK   20  A    between atoms: _59  and  _60
REMARK   21  A    between atoms: _59  and  _62
REMARK   22  A    between atoms: _62  and  _63
REMARK   23  A    between atoms: _68  and  _70
REMARK   24  A    between atoms: _70  and  _71
REMARK   25  A    between atoms: _74  and  _76
REMARK   26  A    between atoms: _76  and  _77
REMARK   27  A    between atoms: _76  and  _79
REMARK   28  A    between atoms: _79  and  _80
REMARK   29  A    between atoms: _85  and  _87
REMARK   30  A    between atoms: _87  and  _88
REMARK   31  A    between atoms: _87  and  _90
REMARK   32  A    between atoms: _90  and  _91
REMARK   33  A    between atoms: _94  and  _96
REMARK   34  A    between atoms: _96  and  _97
REMARK   35  A    between atoms: _96  and  _99
REMARK   36  A    between atoms: _99  and  _100
REMARK   37  A    between atoms: _100  and  _101
REMARK   38  A    between atoms: _106  and  _108
REMARK   39  A    between atoms: _108  and  _109
REMARK   40  A    between atoms: _108  and  _111
REMARK   41  A    between atoms: _111  and  _112
REMARK   42  A    between atoms: _118  and  _120
REMARK   43  A    between atoms: _131  and  _134
REMARK   44  A    between atoms: _134  and  _135
REMARK   45  A    between atoms: _143  and  _144
REMARK   46  A    between atoms: _152  and  _154
REMARK   47  A    between atoms: _154  and  _155
REMARK   48  A    between atoms: _154  and  _157
REMARK   49  A    between atoms: _157  and  _158
REMARK   50  A    between atoms: _158  and  _159
REMARK   51  A    between atoms: _162  and  _164
REMARK   52  A    between atoms: _164  and  _165
REMARK   53  A    between atoms: _164  and  _167
REMARK   54  A    between atoms: _167  and  _168
REMARK   55  A    between atoms: _173  and  _175
REMARK   56  A    between atoms: _175  and  _176
REMARK   57  A    between atoms: _175  and  _178
REMARK   58  A    between atoms: _178  and  _179
REMARK   59  A    between atoms: _179  and  _180
REMARK   60  A    between atoms: _183  and  _185
REMARK   61  A    between atoms: _185  and  _186
REMARK   62  A    between atoms: _185  and  _188
REMARK   63  A    between atoms: _188  and  _189
REMARK   64  A    between atoms: _192  and  _194
REMARK   65  A    between atoms: _194  and  _195
REMARK   66  A    between atoms: _194  and  _197
REMARK   67  A    between atoms: _197  and  _198
REMARK   68  A    between atoms: _199  and  ZN_419
REMARK   69  A    between atoms: _203  and  _205
REMARK   70  A    between atoms: _205  and  _206
REMARK   71  A    between atoms: _205  and  _208
REMARK   72  A    between atoms: _208  and  _209
REMARK   73  A    between atoms: _212  and  _214
REMARK   74  A    between atoms: _214  and  _215
REMARK   75  A    between atoms: _214  and  _217
REMARK   76  A    between atoms: _220  and  _222
REMARK   77  A    between atoms: _222  and  _223
REMARK   78  A    between atoms: _222  and  _225
REMARK   79  A    between atoms: _225  and  _226
REMARK   80  A    between atoms: _231  and  _233
REMARK   81  A    between atoms: _233  and  _234
REMARK   82  A    between atoms: _233  and  _236
REMARK   83  A    between atoms: _236  and  _237
REMARK   84  A    between atoms: _243  and  _245
REMARK   85  A    between atoms: _245  and  _246
REMARK   86  A    between atoms: _245  and  _248
REMARK   87  A    between atoms: _251  and  _253
REMARK   88  A    between atoms: _253  and  _254
REMARK   89  A    between atoms: _253  and  _256
REMARK   90  A    between atoms: _256  and  _257
REMARK   91  A    between atoms: _260  and  _262
REMARK   92  A    between atoms: _262  and  _263
REMARK   93  A    between atoms: _266  and  _268
REMARK   94  A    between atoms: _268  and  _269
REMARK   95  A    between atoms: _268  and  _271
REMARK   96  A    between atoms: _274  and  _276
REMARK   97  A    between atoms: _276  and  _277
REMARK   98  A    between atoms: _276  and  _279
REMARK   99  A    between atoms: _279  and  _280
REMARK  100  A    between atoms: _283  and  _285
REMARK  101  A    between atoms: _285  and  _286
REMARK  102  A    between atoms: _288  and  _290
REMARK  103  A    between atoms: _290  and  _291
REMARK  104  A    between atoms: _293  and  _295
REMARK  105  A    between atoms: _295  and  _296
REMARK  106  A    between atoms: _295  and  _298
REMARK  107  A    between atoms: _298  and  _299
REMARK  108  A    between atoms: _301  and  _303
REMARK  109  A    between atoms: _303  and  _304
REMARK  110  A    between atoms: _303  and  _306
REMARK  111  A    between atoms: _306  and  _307
REMARK  112  A    between atoms: _310  and  _312
REMARK  113  A    between atoms: _312  and  _313
REMARK  114  A    between atoms: _312  and  _315
REMARK  115  A    between atoms: _315  and  _316
REMARK  116  A    between atoms: _319  and  _321
REMARK  117  A    between atoms: _321  and  _322
REMARK  118  A    between atoms: _321  and  _324
REMARK  119  A    between atoms: _324  and  _325
REMARK  120  A    between atoms: _329  and  _330
REMARK  121  A    between atoms: _336  and  _337
REMARK  122  A    between atoms: _342  and  _344
REMARK  123  A    between atoms: _344  and  _345
REMARK  124  A    between atoms: _344  and  _347
REMARK  125  A    between atoms: _347  and  _348
REMARK  126  A    between atoms: _351  and  _353
REMARK  127  A    between atoms: _353  and  _354
REMARK  128  A    between atoms: _353  and  _356
REMARK  129  A    between atoms: _356  and  _357
REMARK  130  A    between atoms: _360  and  _362
REMARK  131  A    between atoms: _362  and  _363
REMARK  132  A    between atoms: _362  and  _365
REMARK  133  A    between atoms: _367  and  _369
REMARK  134  A    between atoms: _369  and  _370
REMARK  135  A    between atoms: _369  and  _372
REMARK  136  A    between atoms: _375  and  _377
REMARK  137  A    between atoms: _377  and  _378
REMARK  138  A    between atoms: _377  and  _380
REMARK  139  A    between atoms: _380  and  _381
REMARK  140  A    between atoms: _391  and  _393
REMARK  141  A    between atoms: _393  and  _394
REMARK  142  A    between atoms: _393  and  _396
REMARK  143  A    between atoms: _396  and  _397
REMARK  144  A    between atoms: _402  and  _404
REMARK  145  A    between atoms: _404  and  _405
REMARK  146  A    between atoms: _404  and  _407
REMARK  147  A    between atoms: _407  and  _408
REMARK  148  A    between atoms: _408  and  _409
REMARK  149  A    between atoms: _409  and  _410
REMARK                            x       y       z     vdW  Elec       q    Type
REMARK                         _______ _______ _______ _____ _____    ______ ____
ROOT
ATOM      1  O   HOH     1      16.711   5.346  10.350  0.00  0.00    +0.000 OA
ENDROOT
TORSDOF 0
REMARK  Name = ../refined-set-2016/2q38/2q38_pocket.pdb
REMARK  149 active torsions:
REMARK  status: ('A' for Active; 'I' for Inactive)
REMARK    1  A    between atoms: _1  and  _3
REMARK    2  A    between atoms: _3  and  _4
REMARK    3  A    between atoms: _3  and  _6
REMARK    4  A    between atoms: _6  and  _7
REMARK    5  A    between atoms: _17  and  _19
REMARK    6  A    between atoms: _19  and  _20
REMARK    7  A    between atoms: _19  and  _22
REMARK    8  A    between atoms: _22  and  _23
REMARK    9  A    between atoms: _28  and  _29
REMARK   10  A    between atoms: _31  and  _33
REMARK   11  A    between atoms: _33  and  _34
REMARK   12  A    between atoms: _33  and  _36
REMARK   13  A    between atoms: _36  and  _37
REMARK   14  A    between atoms: _40  and  _41
REMARK   15  A    between atoms: _46  and  _48
REMARK   16  A    between atoms: _48  and  _49
REMARK   17  A    between atoms: _48  and  _51
REMARK   18  A    between atoms: _51  and  _52
REMARK   19  A    between atoms: _57  and  _59
REMARK   20  A    between atoms: _59  and  _60
REMARK   21  A    between atoms: _59  and  _62
REMARK   22  A    between atoms: _62  and  _63
REMARK   23  A    between atoms: _68  and  _70
REMARK   24  A    between atoms: _70  and  _71
REMARK   25  A    between atoms: _74  and  _76
REMARK   26  A    between atoms: _76  and  _77
REMARK   27  A    between atoms: _76  and  _79
REMARK   28  A    between atoms: _79  and  _80
REMARK   29  A    between atoms: _85  and  _87
REMARK   30  A    between atoms: _87  and  _88
REMARK   31  A    between atoms: _87  and  _90
REMARK   32  A    between atoms: _90  and  _91
REMARK   33  A    between atoms: _94  and  _96
REMARK   34  A    between atoms: _96  and  _97
REMARK   35  A    between atoms: _96  and  _99
REMARK   36  A    between atoms: _99  and  _100
REMARK   37  A    between atoms: _100  and  _101
REMARK   38  A    between atoms: _106  and  _108
REMARK   39  A    between atoms: _108  and  _109
REMARK   40  A    between atoms: _108  and  _111
REMARK   41  A    between atoms: _111  and  _112
REMARK   42  A    between atoms: _118  and  _120
REMARK   43  A    between atoms: _131  and  _134
REMARK   44  A    between atoms: _134  and  _135
REMARK   45  A    between atoms: _143  and  _144
REMARK   46  A    between atoms: _152  and  _154
REMARK   47  A    between atoms: _154  and  _155
REMARK   48  A    between atoms: _154  and  _157
REMARK   49  A    between atoms: _157  and  _158
REMARK   50  A    between atoms: _158  and  _159
REMARK   51  A    between atoms: _162  and  _164
REMARK   52  A    between atoms: _164  and  _165
REMARK   53  A    between atoms: _164  and  _167
REMARK   54  A    between atoms: _167  and  _168
REMARK   55  A    between atoms: _173  and  _175
REMARK   56  A    between atoms: _175  and  _176
REMARK   57  A    between atoms: _175  and  _178
REMARK   58  A    between atoms: _178  and  _179
REMARK   59  A    between atoms: _179  and  _180
REMARK   60  A    between atoms: _183  and  _185
REMARK   61  A    between atoms: _185  and  _186
REMARK   62  A    between atoms: _185  and  _188
REMARK   63  A    between atoms: _188  and  _189
REMARK   64  A    between atoms: _192  and  _194
REMARK   65  A    between atoms: _194  and  _195
REMARK   66  A    between atoms: _194  and  _197
REMARK   67  A    between atoms: _197  and  _198
REMARK   68  A    between atoms: _199  and  ZN_419
REMARK   69  A    between atoms: _203  and  _205
REMARK   70  A    between atoms: _205  and  _206
REMARK   71  A    between atoms: _205  and  _208
REMARK   72  A    between atoms: _208  and  _209
REMARK   73  A    between atoms: _212  and  _214
REMARK   74  A    between atoms: _214  and  _215
REMARK   75  A    between atoms: _214  and  _217
REMARK   76  A    between atoms: _220  and  _222
REMARK   77  A    between atoms: _222  and  _223
REMARK   78  A    between atoms: _222  and  _225
REMARK   79  A    between atoms: _225  and  _226
REMARK   80  A    between atoms: _231  and  _233
REMARK   81  A    between atoms: _233  and  _234
REMARK   82  A    between atoms: _233  and  _236
REMARK   83  A    between atoms: _236  and  _237
REMARK   84  A    between atoms: _243  and  _245
REMARK   85  A    between atoms: _245  and  _246
REMARK   86  A    between atoms: _245  and  _248
REMARK   87  A    between atoms: _251  and  _253
REMARK   88  A    between atoms: _253  and  _254
REMARK   89  A    between atoms: _253  and  _256
REMARK   90  A    between atoms: _256  and  _257
REMARK   91  A    between atoms: _260  and  _262
REMARK   92  A    between atoms: _262  and  _263
REMARK   93  A    between atoms: _266  and  _268
REMARK   94  A    between atoms: _268  and  _269
REMARK   95  A    between atoms: _268  and  _271
REMARK   96  A    between atoms: _274  and  _276
REMARK   97  A    between atoms: _276  and  _277
REMARK   98  A    between atoms: _276  and  _279
REMARK   99  A    between atoms: _279  and  _280
REMARK  100  A    between atoms: _283  and  _285
REMARK  101  A    between atoms: _285  and  _286
REMARK  102  A    between atoms: _288  and  _290
REMARK  103  A    between atoms: _290  and  _291
REMARK  104  A    between atoms: _293  and  _295
REMARK  105  A    between atoms: _295  and  _296
REMARK  106  A    between atoms: _295  and  _298
REMARK  107  A    between atoms: _298  and  _299
REMARK  108  A    between atoms: _301  and  _303
REMARK  109  A    between atoms: _303  and  _304
REMARK  110  A    between atoms: _303  and  _306
REMARK  111  A    between atoms: _306  and  _307
REMARK  112  A    between atoms: _310  and  _312
REMARK  113  A    between atoms: _312  and  _313
REMARK  114  A    between atoms: _312  and  _315
REMARK  115  A    between atoms: _315  and  _316
REMARK  116  A    between atoms: _319  and  _321
REMARK  117  A    between atoms: _321  and  _322
REMARK  118  A    between atoms: _321  and  _324
REMARK  119  A    between atoms: _324  and  _325
REMARK  120  A    between atoms: _329  and  _330
REMARK  121  A    between atoms: _336  and  _337
REMARK  122  A    between atoms: _342  and  _344
REMARK  123  A    between atoms: _344  and  _345
REMARK  124  A    between atoms: _344  and  _347
REMARK  125  A    between atoms: _347  and  _348
REMARK  126  A    between atoms: _351  and  _353
REMARK  127  A    between atoms: _353  and  _354
REMARK  128  A    between atoms: _353  and  _356
REMARK  129  A    between atoms: _356  and  _357
REMARK  130  A    between atoms: _360  and  _362
REMARK  131  A    between atoms: _362  and  _363
REMARK  132  A    between atoms: _362  and  _365
REMARK  133  A    between atoms: _367  and  _369
REMARK  134  A    between atoms: _369  and  _370
REMARK  135  A    between atoms: _369  and  _372
REMARK  136  A    between atoms: _375  and  _377
REMARK  137  A    between atoms: _377  and  _378
REMARK  138  A    between atoms: _377  and  _380
REMARK  139  A    between atoms: _380  and  _381
REMARK  140  A    between atoms: _391  and  _393
REMARK  141  A    between atoms: _393  and  _394
REMARK  142  A    between atoms: _393  and  _396
REMARK  143  A    between atoms: _396  and  _397
REMARK  144  A    between atoms: _402  and  _404
REMARK  145  A    between atoms: _404  and  _405
REMARK  146  A    between atoms: _404  and  _407
REMARK  147  A    between atoms: _407  and  _408
REMARK  148  A    between atoms: _408  and  _409
REMARK  149  A    between atoms: _409  and  _410
REMARK                            x       y       z     vdW  Elec       q    Type
REMARK                         _______ _______ _______ _____ _____    ______ ____
ROOT
ATOM      1  O   HOH     1      18.437  -1.459  11.410  0.00  0.00    +0.000 OA
ENDROOT
TORSDOF 0
REMARK  Name = ../refined-set-2016/2q38/2q38_pocket.pdb
REMARK  149 active torsions:
REMARK  status: ('A' for Active; 'I' for Inactive)
REMARK    1  A    between atoms: _1  and  _3
REMARK    2  A    between atoms: _3  and  _4
REMARK    3  A    between atoms: _3  and  _6
REMARK    4  A    between atoms: _6  and  _7
REMARK    5  A    between atoms: _17  and  _19
REMARK    6  A    between atoms: _19  and  _20
REMARK    7  A    between atoms: _19  and  _22
REMARK    8  A    between atoms: _22  and  _23
REMARK    9  A    between atoms: _28  and  _29
REMARK   10  A    between atoms: _31  and  _33
REMARK   11  A    between atoms: _33  and  _34
REMARK   12  A    between atoms: _33  and  _36
REMARK   13  A    between atoms: _36  and  _37
REMARK   14  A    between atoms: _40  and  _41
REMARK   15  A    between atoms: _46  and  _48
REMARK   16  A    between atoms: _48  and  _49
REMARK   17  A    between atoms: _48  and  _51
REMARK   18  A    between atoms: _51  and  _52
REMARK   19  A    between atoms: _57  and  _59
REMARK   20  A    between atoms: _59  and  _60
REMARK   21  A    between atoms: _59  and  _62
REMARK   22  A    between atoms: _62  and  _63
REMARK   23  A    between atoms: _68  and  _70
REMARK   24  A    between atoms: _70  and  _71
REMARK   25  A    between atoms: _74  and  _76
REMARK   26  A    between atoms: _76  and  _77
REMARK   27  A    between atoms: _76  and  _79
REMARK   28  A    between atoms: _79  and  _80
REMARK   29  A    between atoms: _85  and  _87
REMARK   30  A    between atoms: _87  and  _88
REMARK   31  A    between atoms: _87  and  _90
REMARK   32  A    between atoms: _90  and  _91
REMARK   33  A    between atoms: _94  and  _96
REMARK   34  A    between atoms: _96  and  _97
REMARK   35  A    between atoms: _96  and  _99
REMARK   36  A    between atoms: _99  and  _100
REMARK   37  A    between atoms: _100  and  _101
REMARK   38  A    between atoms: _106  and  _108
REMARK   39  A    between atoms: _108  and  _109
REMARK   40  A    between atoms: _108  and  _111
REMARK   41  A    between atoms: _111  and  _112
REMARK   42  A    between atoms: _118  and  _120
REMARK   43  A    between atoms: _131  and  _134
REMARK   44  A    between atoms: _134  and  _135
REMARK   45  A    between atoms: _143  and  _144
REMARK   46  A    between atoms: _152  and  _154
REMARK   47  A    between atoms: _154  and  _155
REMARK   48  A    between atoms: _154  and  _157
REMARK   49  A    between atoms: _157  and  _158
REMARK   50  A    between atoms: _158  and  _159
REMARK   51  A    between atoms: _162  and  _164
REMARK   52  A    between atoms: _164  and  _165
REMARK   53  A    between atoms: _164  and  _167
REMARK   54  A    between atoms: _167  and  _168
REMARK   55  A    between atoms: _173  and  _175
REMARK   56  A    between atoms: _175  and  _176
REMARK   57  A    between atoms: _175  and  _178
REMARK   58  A    between atoms: _178  and  _179
REMARK   59  A    between atoms: _179  and  _180
REMARK   60  A    between atoms: _183  and  _185
REMARK   61  A    between atoms: _185  and  _186
REMARK   62  A    between atoms: _185  and  _188
REMARK   63  A    between atoms: _188  and  _189
REMARK   64  A    between atoms: _192  and  _194
REMARK   65  A    between atoms: _194  and  _195
REMARK   66  A    between atoms: _194  and  _197
REMARK   67  A    between atoms: _197  and  _198
REMARK   68  A    between atoms: _199  and  ZN_419
REMARK   69  A    between atoms: _203  and  _205
REMARK   70  A    between atoms: _205  and  _206
REMARK   71  A    between atoms: _205  and  _208
REMARK   72  A    between atoms: _208  and  _209
REMARK   73  A    between atoms: _212  and  _214
REMARK   74  A    between atoms: _214  and  _215
REMARK   75  A    between atoms: _214  and  _217
REMARK   76  A    between atoms: _220  and  _222
REMARK   77  A    between atoms: _222  and  _223
REMARK   78  A    between atoms: _222  and  _225
REMARK   79  A    between atoms: _225  and  _226
REMARK   80  A    between atoms: _231  and  _233
REMARK   81  A    between atoms: _233  and  _234
REMARK   82  A    between atoms: _233  and  _236
REMARK   83  A    between atoms: _236  and  _237
REMARK   84  A    between atoms: _243  and  _245
REMARK   85  A    between atoms: _245  and  _246
REMARK   86  A    between atoms: _245  and  _248
REMARK   87  A    between atoms: _251  and  _253
REMARK   88  A    between atoms: _253  and  _254
REMARK   89  A    between atoms: _253  and  _256
REMARK   90  A    between atoms: _256  and  _257
REMARK   91  A    between atoms: _260  and  _262
REMARK   92  A    between atoms: _262  and  _263
REMARK   93  A    between atoms: _266  and  _268
REMARK   94  A    between atoms: _268  and  _269
REMARK   95  A    between atoms: _268  and  _271
REMARK   96  A    between atoms: _274  and  _276
REMARK   97  A    between atoms: _276  and  _277
REMARK   98  A    between atoms: _276  and  _279
REMARK   99  A    between atoms: _279  and  _280
REMARK  100  A    between atoms: _283  and  _285
REMARK  101  A    between atoms: _285  and  _286
REMARK  102  A    between atoms: _288  and  _290
REMARK  103  A    between atoms: _290  and  _291
REMARK  104  A    between atoms: _293  and  _295
REMARK  105  A    between atoms: _295  and  _296
REMARK  106  A    between atoms: _295  and  _298
REMARK  107  A    between atoms: _298  and  _299
REMARK  108  A    between atoms: _301  and  _303
REMARK  109  A    between atoms: _303  and  _304
REMARK  110  A    between atoms: _303  and  _306
REMARK  111  A    between atoms: _306  and  _307
REMARK  112  A    between atoms: _310  and  _312
REMARK  113  A    between atoms: _312  and  _313
REMARK  114  A    between atoms: _312  and  _315
REMARK  115  A    between atoms: _315  and  _316
REMARK  116  A    between atoms: _319  and  _321
REMARK  117  A    between atoms: _321  and  _322
REMARK  118  A    between atoms: _321  and  _324
REMARK  119  A    between atoms: _324  and  _325
REMARK  120  A    between atoms: _329  and  _330
REMARK  121  A    between atoms: _336  and  _337
REMARK  122  A    between atoms: _342  and  _344
REMARK  123  A    between atoms: _344  and  _345
REMARK  124  A    between atoms: _344  and  _347
REMARK  125  A    between atoms: _347  and  _348
REMARK  126  A    between atoms: _351  and  _353
REMARK  127  A    between atoms: _353  and  _354
REMARK  128  A    between atoms: _353  and  _356
REMARK  129  A    between atoms: _356  and  _357
REMARK  130  A    between atoms: _360  and  _362
REMARK  131  A    between atoms: _362  and  _363
REMARK  132  A    between atoms: _362  and  _365
REMARK  133  A    between atoms: _367  and  _369
REMARK  134  A    between atoms: _369  and  _370
REMARK  135  A    between atoms: _369  and  _372
REMARK  136  A    between atoms: _375  and  _377
REMARK  137  A    between atoms: _377  and  _378
REMARK  138  A    between atoms: _377  and  _380
REMARK  139  A    between atoms: _380  and  _381
REMARK  140  A    between atoms: _391  and  _393
REMARK  141  A    between atoms: _393  and  _394
REMARK  142  A    between atoms: _393  and  _396
REMARK  143  A    between atoms: _396  and  _397
REMARK  144  A    between atoms: _402  and  _404
REMARK  145  A    between atoms: _404  and  _405
REMARK  146  A    between atoms: _404  and  _407
REMARK  147  A    between atoms: _407  and  _408
REMARK  148  A    between atoms: _408  and  _409
REMARK  149  A    between atoms: _409  and  _410
REMARK                            x       y       z     vdW  Elec       q    Type
REMARK                         _______ _______ _______ _____ _____    ______ ____
ROOT
ATOM      1  O   HOH     1      19.843   5.583  13.622  0.00  0.00    +0.000 OA
ENDROOT
TORSDOF 0
REMARK  Name = ../refined-set-2016/2q38/2q38_pocket.pdb
REMARK  149 active torsions:
REMARK  status: ('A' for Active; 'I' for Inactive)
REMARK    1  A    between atoms: _1  and  _3
REMARK    2  A    between atoms: _3  and  _4
REMARK    3  A    between atoms: _3  and  _6
REMARK    4  A    between atoms: _6  and  _7
REMARK    5  A    between atoms: _17  and  _19
REMARK    6  A    between atoms: _19  and  _20
REMARK    7  A    between atoms: _19  and  _22
REMARK    8  A    between atoms: _22  and  _23
REMARK    9  A    between atoms: _28  and  _29
REMARK   10  A    between atoms: _31  and  _33
REMARK   11  A    between atoms: _33  and  _34
REMARK   12  A    between atoms: _33  and  _36
REMARK   13  A    between atoms: _36  and  _37
REMARK   14  A    between atoms: _40  and  _41
REMARK   15  A    between atoms: _46  and  _48
REMARK   16  A    between atoms: _48  and  _49
REMARK   17  A    between atoms: _48  and  _51
REMARK   18  A    between atoms: _51  and  _52
REMARK   19  A    between atoms: _57  and  _59
REMARK   20  A    between atoms: _59  and  _60
REMARK   21  A    between atoms: _59  and  _62
REMARK   22  A    between atoms: _62  and  _63
REMARK   23  A    between atoms: _68  and  _70
REMARK   24  A    between atoms: _70  and  _71
REMARK   25  A    between atoms: _74  and  _76
REMARK   26  A    between atoms: _76  and  _77
REMARK   27  A    between atoms: _76  and  _79
REMARK   28  A    between atoms: _79  and  _80
REMARK   29  A    between atoms: _85  and  _87
REMARK   30  A    between atoms: _87  and  _88
REMARK   31  A    between atoms: _87  and  _90
REMARK   32  A    between atoms: _90  and  _91
REMARK   33  A    between atoms: _94  and  _96
REMARK   34  A    between atoms: _96  and  _97
REMARK   35  A    between atoms: _96  and  _99
REMARK   36  A    between atoms: _99  and  _100
REMARK   37  A    between atoms: _100  and  _101
REMARK   38  A    between atoms: _106  and  _108
REMARK   39  A    between atoms: _108  and  _109
REMARK   40  A    between atoms: _108  and  _111
REMARK   41  A    between atoms: _111  and  _112
REMARK   42  A    between atoms: _118  and  _120
REMARK   43  A    between atoms: _131  and  _134
REMARK   44  A    between atoms: _134  and  _135
REMARK   45  A    between atoms: _143  and  _144
REMARK   46  A    between atoms: _152  and  _154
REMARK   47  A    between atoms: _154  and  _155
REMARK   48  A    between atoms: _154  and  _157
REMARK   49  A    between atoms: _157  and  _158
REMARK   50  A    between atoms: _158  and  _159
REMARK   51  A    between atoms: _162  and  _164
REMARK   52  A    between atoms: _164  and  _165
REMARK   53  A    between atoms: _164  and  _167
REMARK   54  A    between atoms: _167  and  _168
REMARK   55  A    between atoms: _173  and  _175
REMARK   56  A    between atoms: _175  and  _176
REMARK   57  A    between atoms: _175  and  _178
REMARK   58  A    between atoms: _178  and  _179
REMARK   59  A    between atoms: _179  and  _180
REMARK   60  A    between atoms: _183  and  _185
REMARK   61  A    between atoms: _185  and  _186
REMARK   62  A    between atoms: _185  and  _188
REMARK   63  A    between atoms: _188  and  _189
REMARK   64  A    between atoms: _192  and  _194
REMARK   65  A    between atoms: _194  and  _195
REMARK   66  A    between atoms: _194  and  _197
REMARK   67  A    between atoms: _197  and  _198
REMARK   68  A    between atoms: _199  and  ZN_419
REMARK   69  A    between atoms: _203  and  _205
REMARK   70  A    between atoms: _205  and  _206
REMARK   71  A    between atoms: _205  and  _208
REMARK   72  A    between atoms: _208  and  _209
REMARK   73  A    between atoms: _212  and  _214
REMARK   74  A    between atoms: _214  and  _215
REMARK   75  A    between atoms: _214  and  _217
REMARK   76  A    between atoms: _220  and  _222
REMARK   77  A    between atoms: _222  and  _223
REMARK   78  A    between atoms: _222  and  _225
REMARK   79  A    between atoms: _225  and  _226
REMARK   80  A    between atoms: _231  and  _233
REMARK   81  A    between atoms: _233  and  _234
REMARK   82  A    between atoms: _233  and  _236
REMARK   83  A    between atoms: _236  and  _237
REMARK   84  A    between atoms: _243  and  _245
REMARK   85  A    between atoms: _245  and  _246
REMARK   86  A    between atoms: _245  and  _248
REMARK   87  A    between atoms: _251  and  _253
REMARK   88  A    between atoms: _253  and  _254
REMARK   89  A    between atoms: _253  and  _256
REMARK   90  A    between atoms: _256  and  _257
REMARK   91  A    between atoms: _260  and  _262
REMARK   92  A    between atoms: _262  and  _263
REMARK   93  A    between atoms: _266  and  _268
REMARK   94  A    between atoms: _268  and  _269
REMARK   95  A    between atoms: _268  and  _271
REMARK   96  A    between atoms: _274  and  _276
REMARK   97  A    between atoms: _276  and  _277
REMARK   98  A    between atoms: _276  and  _279
REMARK   99  A    between atoms: _279  and  _280
REMARK  100  A    between atoms: _283  and  _285
REMARK  101  A    between atoms: _285  and  _286
REMARK  102  A    between atoms: _288  and  _290
REMARK  103  A    between atoms: _290  and  _291
REMARK  104  A    between atoms: _293  and  _295
REMARK  105  A    between atoms: _295  and  _296
REMARK  106  A    between atoms: _295  and  _298
REMARK  107  A    between atoms: _298  and  _299
REMARK  108  A    between atoms: _301  and  _303
REMARK  109  A    between atoms: _303  and  _304
REMARK  110  A    between atoms: _303  and  _306
REMARK  111  A    between atoms: _306  and  _307
REMARK  112  A    between atoms: _310  and  _312
REMARK  113  A    between atoms: _312  and  _313
REMARK  114  A    between atoms: _312  and  _315
REMARK  115  A    between atoms: _315  and  _316
REMARK  116  A    between atoms: _319  and  _321
REMARK  117  A    between atoms: _321  and  _322
REMARK  118  A    between atoms: _321  and  _324
REMARK  119  A    between atoms: _324  and  _325
REMARK  120  A    between atoms: _329  and  _330
REMARK  121  A    between atoms: _336  and  _337
REMARK  122  A    between atoms: _342  and  _344
REMARK  123  A    between atoms: _344  and  _345
REMARK  124  A    between atoms: _344  and  _347
REMARK  125  A    between atoms: _347  and  _348
REMARK  126  A    between atoms: _351  and  _353
REMARK  127  A    between atoms: _353  and  _354
REMARK  128  A    between atoms: _353  and  _356
REMARK  129  A    between atoms: _356  and  _357
REMARK  130  A    between atoms: _360  and  _362
REMARK  131  A    between atoms: _362  and  _363
REMARK  132  A    between atoms: _362  and  _365
REMARK  133  A    between atoms: _367  and  _369
REMARK  134  A    between atoms: _369  and  _370
REMARK  135  A    between atoms: _369  and  _372
REMARK  136  A    between atoms: _375  and  _377
REMARK  137  A    between atoms: _377  and  _378
REMARK  138  A    between atoms: _377  and  _380
REMARK  139  A    between atoms: _380  and  _381
REMARK  140  A    between atoms: _391  and  _393
REMARK  141  A    between atoms: _393  and  _394
REMARK  142  A    between atoms: _393  and  _396
REMARK  143  A    between atoms: _396  and  _397
REMARK  144  A    between atoms: _402  and  _404
REMARK  145  A    between atoms: _404  and  _405
REMARK  146  A    between atoms: _404  and  _407
REMARK  147  A    between atoms: _407  and  _408
REMARK  148  A    between atoms: _408  and  _409
REMARK  149  A    between atoms: _409  and  _410
REMARK                            x       y       z     vdW  Elec       q    Type
REMARK                         _______ _______ _______ _____ _____    ______ ____
ROOT
ATOM      1  O   HOH     1      19.190   2.281  10.290  0.00  0.00    +0.000 OA
ENDROOT
TORSDOF 0
REMARK  Name = ../refined-set-2016/2q38/2q38_pocket.pdb
REMARK  149 active torsions:
REMARK  status: ('A' for Active; 'I' for Inactive)
REMARK    1  A    between atoms: _1  and  _3
REMARK    2  A    between atoms: _3  and  _4
REMARK    3  A    between atoms: _3  and  _6
REMARK    4  A    between atoms: _6  and  _7
REMARK    5  A    between atoms: _17  and  _19
REMARK    6  A    between atoms: _19  and  _20
REMARK    7  A    between atoms: _19  and  _22
REMARK    8  A    between atoms: _22  and  _23
REMARK    9  A    between atoms: _28  and  _29
REMARK   10  A    between atoms: _31  and  _33
REMARK   11  A    between atoms: _33  and  _34
REMARK   12  A    between atoms: _33  and  _36
REMARK   13  A    between atoms: _36  and  _37
REMARK   14  A    between atoms: _40  and  _41
REMARK   15  A    between atoms: _46  and  _48
REMARK   16  A    between atoms: _48  and  _49
REMARK   17  A    between atoms: _48  and  _51
REMARK   18  A    between atoms: _51  and  _52
REMARK   19  A    between atoms: _57  and  _59
REMARK   20  A    between atoms: _59  and  _60
REMARK   21  A    between atoms: _59  and  _62
REMARK   22  A    between atoms: _62  and  _63
REMARK   23  A    between atoms: _68  and  _70
REMARK   24  A    between atoms: _70  and  _71
REMARK   25  A    between atoms: _74  and  _76
REMARK   26  A    between atoms: _76  and  _77
REMARK   27  A    between atoms: _76  and  _79
REMARK   28  A    between atoms: _79  and  _80
REMARK   29  A    between atoms: _85  and  _87
REMARK   30  A    between atoms: _87  and  _88
REMARK   31  A    between atoms: _87  and  _90
REMARK   32  A    between atoms: _90  and  _91
REMARK   33  A    between atoms: _94  and  _96
REMARK   34  A    between atoms: _96  and  _97
REMARK   35  A    between atoms: _96  and  _99
REMARK   36  A    between atoms: _99  and  _100
REMARK   37  A    between atoms: _100  and  _101
REMARK   38  A    between atoms: _106  and  _108
REMARK   39  A    between atoms: _108  and  _109
REMARK   40  A    between atoms: _108  and  _111
REMARK   41  A    between atoms: _111  and  _112
REMARK   42  A    between atoms: _118  and  _120
REMARK   43  A    between atoms: _131  and  _134
REMARK   44  A    between atoms: _134  and  _135
REMARK   45  A    between atoms: _143  and  _144
REMARK   46  A    between atoms: _152  and  _154
REMARK   47  A    between atoms: _154  and  _155
REMARK   48  A    between atoms: _154  and  _157
REMARK   49  A    between atoms: _157  and  _158
REMARK   50  A    between atoms: _158  and  _159
REMARK   51  A    between atoms: _162  and  _164
REMARK   52  A    between atoms: _164  and  _165
REMARK   53  A    between atoms: _164  and  _167
REMARK   54  A    between atoms: _167  and  _168
REMARK   55  A    between atoms: _173  and  _175
REMARK   56  A    between atoms: _175  and  _176
REMARK   57  A    between atoms: _175  and  _178
REMARK   58  A    between atoms: _178  and  _179
REMARK   59  A    between atoms: _179  and  _180
REMARK   60  A    between atoms: _183  and  _185
REMARK   61  A    between atoms: _185  and  _186
REMARK   62  A    between atoms: _185  and  _188
REMARK   63  A    between atoms: _188  and  _189
REMARK   64  A    between atoms: _192  and  _194
REMARK   65  A    between atoms: _194  and  _195
REMARK   66  A    between atoms: _194  and  _197
REMARK   67  A    between atoms: _197  and  _198
REMARK   68  A    between atoms: _199  and  ZN_419
REMARK   69  A    between atoms: _203  and  _205
REMARK   70  A    between atoms: _205  and  _206
REMARK   71  A    between atoms: _205  and  _208
REMARK   72  A    between atoms: _208  and  _209
REMARK   73  A    between atoms: _212  and  _214
REMARK   74  A    between atoms: _214  and  _215
REMARK   75  A    between atoms: _214  and  _217
REMARK   76  A    between atoms: _220  and  _222
REMARK   77  A    between atoms: _222  and  _223
REMARK   78  A    between atoms: _222  and  _225
REMARK   79  A    between atoms: _225  and  _226
REMARK   80  A    between atoms: _231  and  _233
REMARK   81  A    between atoms: _233  and  _234
REMARK   82  A    between atoms: _233  and  _236
REMARK   83  A    between atoms: _236  and  _237
REMARK   84  A    between atoms: _243  and  _245
REMARK   85  A    between atoms: _245  and  _246
REMARK   86  A    between atoms: _245  and  _248
REMARK   87  A    between atoms: _251  and  _253
REMARK   88  A    between atoms: _253  and  _254
REMARK   89  A    between atoms: _253  and  _256
REMARK   90  A    between atoms: _256  and  _257
REMARK   91  A    between atoms: _260  and  _262
REMARK   92  A    between atoms: _262  and  _263
REMARK   93  A    between atoms: _266  and  _268
REMARK   94  A    between atoms: _268  and  _269
REMARK   95  A    between atoms: _268  and  _271
REMARK   96  A    between atoms: _274  and  _276
REMARK   97  A    between atoms: _276  and  _277
REMARK   98  A    between atoms: _276  and  _279
REMARK   99  A    between atoms: _279  and  _280
REMARK  100  A    between atoms: _283  and  _285
REMARK  101  A    between atoms: _285  and  _286
REMARK  102  A    between atoms: _288  and  _290
REMARK  103  A    between atoms: _290  and  _291
REMARK  104  A    between atoms: _293  and  _295
REMARK  105  A    between atoms: _295  and  _296
REMARK  106  A    between atoms: _295  and  _298
REMARK  107  A    between atoms: _298  and  _299
REMARK  108  A    between atoms: _301  and  _303
REMARK  109  A    between atoms: _303  and  _304
REMARK  110  A    between atoms: _303  and  _306
REMARK  111  A    between atoms: _306  and  _307
REMARK  112  A    between atoms: _310  and  _312
REMARK  113  A    between atoms: _312  and  _313
REMARK  114  A    between atoms: _312  and  _315
REMARK  115  A    between atoms: _315  and  _316
REMARK  116  A    between atoms: _319  and  _321
REMARK  117  A    between atoms: _321  and  _322
REMARK  118  A    between atoms: _321  and  _324
REMARK  119  A    between atoms: _324  and  _325
REMARK  120  A    between atoms: _329  and  _330
REMARK  121  A    between atoms: _336  and  _337
REMARK  122  A    between atoms: _342  and  _344
REMARK  123  A    between atoms: _344  and  _345
REMARK  124  A    between atoms: _344  and  _347
REMARK  125  A    between atoms: _347  and  _348
REMARK  126  A    between atoms: _351  and  _353
REMARK  127  A    between atoms: _353  and  _354
REMARK  128  A    between atoms: _353  and  _356
REMARK  129  A    between atoms: _356  and  _357
REMARK  130  A    between atoms: _360  and  _362
REMARK  131  A    between atoms: _362  and  _363
REMARK  132  A    between atoms: _362  and  _365
REMARK  133  A    between atoms: _367  and  _369
REMARK  134  A    between atoms: _369  and  _370
REMARK  135  A    between atoms: _369  and  _372
REMARK  136  A    between atoms: _375  and  _377
REMARK  137  A    between atoms: _377  and  _378
REMARK  138  A    between atoms: _377  and  _380
REMARK  139  A    between atoms: _380  and  _381
REMARK  140  A    between atoms: _391  and  _393
REMARK  141  A    between atoms: _393  and  _394
REMARK  142  A    between atoms: _393  and  _396
REMARK  143  A    between atoms: _396  and  _397
REMARK  144  A    between atoms: _402  and  _404
REMARK  145  A    between atoms: _404  and  _405
REMARK  146  A    between atoms: _404  and  _407
REMARK  147  A    between atoms: _407  and  _408
REMARK  148  A    between atoms: _408  and  _409
REMARK  149  A    between atoms: _409  and  _410
REMARK                            x       y       z     vdW  Elec       q    Type
REMARK                         _______ _______ _______ _____ _____    ______ ____
ROOT
ATOM      1  O   HOH     1      16.628   1.073  11.759  0.00  0.00    +0.000 OA
ENDROOT
TORSDOF 0
REMARK  Name = ../refined-set-2016/2q38/2q38_pocket.pdb
REMARK  149 active torsions:
REMARK  status: ('A' for Active; 'I' for Inactive)
REMARK    1  A    between atoms: _1  and  _3
REMARK    2  A    between atoms: _3  and  _4
REMARK    3  A    between atoms: _3  and  _6
REMARK    4  A    between atoms: _6  and  _7
REMARK    5  A    between atoms: _17  and  _19
REMARK    6  A    between atoms: _19  and  _20
REMARK    7  A    between atoms: _19  and  _22
REMARK    8  A    between atoms: _22  and  _23
REMARK    9  A    between atoms: _28  and  _29
REMARK   10  A    between atoms: _31  and  _33
REMARK   11  A    between atoms: _33  and  _34
REMARK   12  A    between atoms: _33  and  _36
REMARK   13  A    between atoms: _36  and  _37
REMARK   14  A    between atoms: _40  and  _41
REMARK   15  A    between atoms: _46  and  _48
REMARK   16  A    between atoms: _48  and  _49
REMARK   17  A    between atoms: _48  and  _51
REMARK   18  A    between atoms: _51  and  _52
REMARK   19  A    between atoms: _57  and  _59
REMARK   20  A    between atoms: _59  and  _60
REMARK   21  A    between atoms: _59  and  _62
REMARK   22  A    between atoms: _62  and  _63
REMARK   23  A    between atoms: _68  and  _70
REMARK   24  A    between atoms: _70  and  _71
REMARK   25  A    between atoms: _74  and  _76
REMARK   26  A    between atoms: _76  and  _77
REMARK   27  A    between atoms: _76  and  _79
REMARK   28  A    between atoms: _79  and  _80
REMARK   29  A    between atoms: _85  and  _87
REMARK   30  A    between atoms: _87  and  _88
REMARK   31  A    between atoms: _87  and  _90
REMARK   32  A    between atoms: _90  and  _91
REMARK   33  A    between atoms: _94  and  _96
REMARK   34  A    between atoms: _96  and  _97
REMARK   35  A    between atoms: _96  and  _99
REMARK   36  A    between atoms: _99  and  _100
REMARK   37  A    between atoms: _100  and  _101
REMARK   38  A    between atoms: _106  and  _108
REMARK   39  A    between atoms: _108  and  _109
REMARK   40  A    between atoms: _108  and  _111
REMARK   41  A    between atoms: _111  and  _112
REMARK   42  A    between atoms: _118  and  _120
REMARK   43  A    between atoms: _131  and  _134
REMARK   44  A    between atoms: _134  and  _135
REMARK   45  A    between atoms: _143  and  _144
REMARK   46  A    between atoms: _152  and  _154
REMARK   47  A    between atoms: _154  and  _155
REMARK   48  A    between atoms: _154  and  _157
REMARK   49  A    between atoms: _157  and  _158
REMARK   50  A    between atoms: _158  and  _159
REMARK   51  A    between atoms: _162  and  _164
REMARK   52  A    between atoms: _164  and  _165
REMARK   53  A    between atoms: _164  and  _167
REMARK   54  A    between atoms: _167  and  _168
REMARK   55  A    between atoms: _173  and  _175
REMARK   56  A    between atoms: _175  and  _176
REMARK   57  A    between atoms: _175  and  _178
REMARK   58  A    between atoms: _178  and  _179
REMARK   59  A    between atoms: _179  and  _180
REMARK   60  A    between atoms: _183  and  _185
REMARK   61  A    between atoms: _185  and  _186
REMARK   62  A    between atoms: _185  and  _188
REMARK   63  A    between atoms: _188  and  _189
REMARK   64  A    between atoms: _192  and  _194
REMARK   65  A    between atoms: _194  and  _195
REMARK   66  A    between atoms: _194  and  _197
REMARK   67  A    between atoms: _197  and  _198
REMARK   68  A    between atoms: _199  and  ZN_419
REMARK   69  A    between atoms: _203  and  _205
REMARK   70  A    between atoms: _205  and  _206
REMARK   71  A    between atoms: _205  and  _208
REMARK   72  A    between atoms: _208  and  _209
REMARK   73  A    between atoms: _212  and  _214
REMARK   74  A    between atoms: _214  and  _215
REMARK   75  A    between atoms: _214  and  _217
REMARK   76  A    between atoms: _220  and  _222
REMARK   77  A    between atoms: _222  and  _223
REMARK   78  A    between atoms: _222  and  _225
REMARK   79  A    between atoms: _225  and  _226
REMARK   80  A    between atoms: _231  and  _233
REMARK   81  A    between atoms: _233  and  _234
REMARK   82  A    between atoms: _233  and  _236
REMARK   83  A    between atoms: _236  and  _237
REMARK   84  A    between atoms: _243  and  _245
REMARK   85  A    between atoms: _245  and  _246
REMARK   86  A    between atoms: _245  and  _248
REMARK   87  A    between atoms: _251  and  _253
REMARK   88  A    between atoms: _253  and  _254
REMARK   89  A    between atoms: _253  and  _256
REMARK   90  A    between atoms: _256  and  _257
REMARK   91  A    between atoms: _260  and  _262
REMARK   92  A    between atoms: _262  and  _263
REMARK   93  A    between atoms: _266  and  _268
REMARK   94  A    between atoms: _268  and  _269
REMARK   95  A    between atoms: _268  and  _271
REMARK   96  A    between atoms: _274  and  _276
REMARK   97  A    between atoms: _276  and  _277
REMARK   98  A    between atoms: _276  and  _279
REMARK   99  A    between atoms: _279  and  _280
REMARK  100  A    between atoms: _283  and  _285
REMARK  101  A    between atoms: _285  and  _286
REMARK  102  A    between atoms: _288  and  _290
REMARK  103  A    between atoms: _290  and  _291
REMARK  104  A    between atoms: _293  and  _295
REMARK  105  A    between atoms: _295  and  _296
REMARK  106  A    between atoms: _295  and  _298
REMARK  107  A    between atoms: _298  and  _299
REMARK  108  A    between atoms: _301  and  _303
REMARK  109  A    between atoms: _303  and  _304
REMARK  110  A    between atoms: _303  and  _306
REMARK  111  A    between atoms: _306  and  _307
REMARK  112  A    between atoms: _310  and  _312
REMARK  113  A    between atoms: _312  and  _313
REMARK  114  A    between atoms: _312  and  _315
REMARK  115  A    between atoms: _315  and  _316
REMARK  116  A    between atoms: _319  and  _321
REMARK  117  A    between atoms: _321  and  _322
REMARK  118  A    between atoms: _321  and  _324
REMARK  119  A    between atoms: _324  and  _325
REMARK  120  A    between atoms: _329  and  _330
REMARK  121  A    between atoms: _336  and  _337
REMARK  122  A    between atoms: _342  and  _344
REMARK  123  A    between atoms: _344  and  _345
REMARK  124  A    between atoms: _344  and  _347
REMARK  125  A    between atoms: _347  and  _348
REMARK  126  A    between atoms: _351  and  _353
REMARK  127  A    between atoms: _353  and  _354
REMARK  128  A    between atoms: _353  and  _356
REMARK  129  A    between atoms: _356  and  _357
REMARK  130  A    between atoms: _360  and  _362
REMARK  131  A    between atoms: _362  and  _363
REMARK  132  A    between atoms: _362  and  _365
REMARK  133  A    between atoms: _367  and  _369
REMARK  134  A    between atoms: _369  and  _370
REMARK  135  A    between atoms: _369  and  _372
REMARK  136  A    between atoms: _375  and  _377
REMARK  137  A    between atoms: _377  and  _378
REMARK  138  A    between atoms: _377  and  _380
REMARK  139  A    between atoms: _380  and  _381
REMARK  140  A    between atoms: _391  and  _393
REMARK  141  A    between atoms: _393  and  _394
REMARK  142  A    between atoms: _393  and  _396
REMARK  143  A    between atoms: _396  and  _397
REMARK  144  A    between atoms: _402  and  _404
REMARK  145  A    between atoms: _404  and  _405
REMARK  146  A    between atoms: _404  and  _407
REMARK  147  A    between atoms: _407  and  _408
REMARK  148  A    between atoms: _408  and  _409
REMARK  149  A    between atoms: _409  and  _410
REMARK                            x       y       z     vdW  Elec       q    Type
REMARK                         _______ _______ _______ _____ _____    ______ ____
ROOT
ATOM      1  O   HOH     1      15.539   3.339  10.639  0.00  0.00    +0.000 OA
ENDROOT
TORSDOF 0
REMARK  Name = ../refined-set-2016/2q38/2q38_pocket.pdb
REMARK  149 active torsions:
REMARK  status: ('A' for Active; 'I' for Inactive)
REMARK    1  A    between atoms: _1  and  _3
REMARK    2  A    between atoms: _3  and  _4
REMARK    3  A    between atoms: _3  and  _6
REMARK    4  A    between atoms: _6  and  _7
REMARK    5  A    between atoms: _17  and  _19
REMARK    6  A    between atoms: _19  and  _20
REMARK    7  A    between atoms: _19  and  _22
REMARK    8  A    between atoms: _22  and  _23
REMARK    9  A    between atoms: _28  and  _29
REMARK   10  A    between atoms: _31  and  _33
REMARK   11  A    between atoms: _33  and  _34
REMARK   12  A    between atoms: _33  and  _36
REMARK   13  A    between atoms: _36  and  _37
REMARK   14  A    between atoms: _40  and  _41
REMARK   15  A    between atoms: _46  and  _48
REMARK   16  A    between atoms: _48  and  _49
REMARK   17  A    between atoms: _48  and  _51
REMARK   18  A    between atoms: _51  and  _52
REMARK   19  A    between atoms: _57  and  _59
REMARK   20  A    between atoms: _59  and  _60
REMARK   21  A    between atoms: _59  and  _62
REMARK   22  A    between atoms: _62  and  _63
REMARK   23  A    between atoms: _68  and  _70
REMARK   24  A    between atoms: _70  and  _71
REMARK   25  A    between atoms: _74  and  _76
REMARK   26  A    between atoms: _76  and  _77
REMARK   27  A    between atoms: _76  and  _79
REMARK   28  A    between atoms: _79  and  _80
REMARK   29  A    between atoms: _85  and  _87
REMARK   30  A    between atoms: _87  and  _88
REMARK   31  A    between atoms: _87  and  _90
REMARK   32  A    between atoms: _90  and  _91
REMARK   33  A    between atoms: _94  and  _96
REMARK   34  A    between atoms: _96  and  _97
REMARK   35  A    between atoms: _96  and  _99
REMARK   36  A    between atoms: _99  and  _100
REMARK   37  A    between atoms: _100  and  _101
REMARK   38  A    between atoms: _106  and  _108
REMARK   39  A    between atoms: _108  and  _109
REMARK   40  A    between atoms: _108  and  _111
REMARK   41  A    between atoms: _111  and  _112
REMARK   42  A    between atoms: _118  and  _120
REMARK   43  A    between atoms: _131  and  _134
REMARK   44  A    between atoms: _134  and  _135
REMARK   45  A    between atoms: _143  and  _144
REMARK   46  A    between atoms: _152  and  _154
REMARK   47  A    between atoms: _154  and  _155
REMARK   48  A    between atoms: _154  and  _157
REMARK   49  A    between atoms: _157  and  _158
REMARK   50  A    between atoms: _158  and  _159
REMARK   51  A    between atoms: _162  and  _164
REMARK   52  A    between atoms: _164  and  _165
REMARK   53  A    between atoms: _164  and  _167
REMARK   54  A    between atoms: _167  and  _168
REMARK   55  A    between atoms: _173  and  _175
REMARK   56  A    between atoms: _175  and  _176
REMARK   57  A    between atoms: _175  and  _178
REMARK   58  A    between atoms: _178  and  _179
REMARK   59  A    between atoms: _179  and  _180
REMARK   60  A    between atoms: _183  and  _185
REMARK   61  A    between atoms: _185  and  _186
REMARK   62  A    between atoms: _185  and  _188
REMARK   63  A    between atoms: _188  and  _189
REMARK   64  A    between atoms: _192  and  _194
REMARK   65  A    between atoms: _194  and  _195
REMARK   66  A    between atoms: _194  and  _197
REMARK   67  A    between atoms: _197  and  _198
REMARK   68  A    between atoms: _199  and  ZN_419
REMARK   69  A    between atoms: _203  and  _205
REMARK   70  A    between atoms: _205  and  _206
REMARK   71  A    between atoms: _205  and  _208
REMARK   72  A    between atoms: _208  and  _209
REMARK   73  A    between atoms: _212  and  _214
REMARK   74  A    between atoms: _214  and  _215
REMARK   75  A    between atoms: _214  and  _217
REMARK   76  A    between atoms: _220  and  _222
REMARK   77  A    between atoms: _222  and  _223
REMARK   78  A    between atoms: _222  and  _225
REMARK   79  A    between atoms: _225  and  _226
REMARK   80  A    between atoms: _231  and  _233
REMARK   81  A    between atoms: _233  and  _234
REMARK   82  A    between atoms: _233  and  _236
REMARK   83  A    between atoms: _236  and  _237
REMARK   84  A    between atoms: _243  and  _245
REMARK   85  A    between atoms: _245  and  _246
REMARK   86  A    between atoms: _245  and  _248
REMARK   87  A    between atoms: _251  and  _253
REMARK   88  A    between atoms: _253  and  _254
REMARK   89  A    between atoms: _253  and  _256
REMARK   90  A    between atoms: _256  and  _257
REMARK   91  A    between atoms: _260  and  _262
REMARK   92  A    between atoms: _262  and  _263
REMARK   93  A    between atoms: _266  and  _268
REMARK   94  A    between atoms: _268  and  _269
REMARK   95  A    between atoms: _268  and  _271
REMARK   96  A    between atoms: _274  and  _276
REMARK   97  A    between atoms: _276  and  _277
REMARK   98  A    between atoms: _276  and  _279
REMARK   99  A    between atoms: _279  and  _280
REMARK  100  A    between atoms: _283  and  _285
REMARK  101  A    between atoms: _285  and  _286
REMARK  102  A    between atoms: _288  and  _290
REMARK  103  A    between atoms: _290  and  _291
REMARK  104  A    between atoms: _293  and  _295
REMARK  105  A    between atoms: _295  and  _296
REMARK  106  A    between atoms: _295  and  _298
REMARK  107  A    between atoms: _298  and  _299
REMARK  108  A    between atoms: _301  and  _303
REMARK  109  A    between atoms: _303  and  _304
REMARK  110  A    between atoms: _303  and  _306
REMARK  111  A    between atoms: _306  and  _307
REMARK  112  A    between atoms: _310  and  _312
REMARK  113  A    between atoms: _312  and  _313
REMARK  114  A    between atoms: _312  and  _315
REMARK  115  A    between atoms: _315  and  _316
REMARK  116  A    between atoms: _319  and  _321
REMARK  117  A    between atoms: _321  and  _322
REMARK  118  A    between atoms: _321  and  _324
REMARK  119  A    between atoms: _324  and  _325
REMARK  120  A    between atoms: _329  and  _330
REMARK  121  A    between atoms: _336  and  _337
REMARK  122  A    between atoms: _342  and  _344
REMARK  123  A    between atoms: _344  and  _345
REMARK  124  A    between atoms: _344  and  _347
REMARK  125  A    between atoms: _347  and  _348
REMARK  126  A    between atoms: _351  and  _353
REMARK  127  A    between atoms: _353  and  _354
REMARK  128  A    between atoms: _353  and  _356
REMARK  129  A    between atoms: _356  and  _357
REMARK  130  A    between atoms: _360  and  _362
REMARK  131  A    between atoms: _362  and  _363
REMARK  132  A    between atoms: _362  and  _365
REMARK  133  A    between atoms: _367  and  _369
REMARK  134  A    between atoms: _369  and  _370
REMARK  135  A    between atoms: _369  and  _372
REMARK  136  A    between atoms: _375  and  _377
REMARK  137  A    between atoms: _377  and  _378
REMARK  138  A    between atoms: _377  and  _380
REMARK  139  A    between atoms: _380  and  _381
REMARK  140  A    between atoms: _391  and  _393
REMARK  141  A    between atoms: _393  and  _394
REMARK  142  A    between atoms: _393  and  _396
REMARK  143  A    between atoms: _396  and  _397
REMARK  144  A    between atoms: _402  and  _404
REMARK  145  A    between atoms: _404  and  _405
REMARK  146  A    between atoms: _404  and  _407
REMARK  147  A    between atoms: _407  and  _408
REMARK  148  A    between atoms: _408  and  _409
REMARK  149  A    between atoms: _409  and  _410
REMARK                            x       y       z     vdW  Elec       q    Type
REMARK                         _______ _______ _______ _____ _____    ______ ____
ROOT
ATOM      1  O   HOH     1      12.866   9.400   8.108  0.00  0.00    +0.000 OA
ENDROOT
TORSDOF 0
REMARK  Name = ../refined-set-2016/2q38/2q38_pocket.pdb
REMARK  149 active torsions:
REMARK  status: ('A' for Active; 'I' for Inactive)
REMARK    1  A    between atoms: _1  and  _3
REMARK    2  A    between atoms: _3  and  _4
REMARK    3  A    between atoms: _3  and  _6
REMARK    4  A    between atoms: _6  and  _7
REMARK    5  A    between atoms: _17  and  _19
REMARK    6  A    between atoms: _19  and  _20
REMARK    7  A    between atoms: _19  and  _22
REMARK    8  A    between atoms: _22  and  _23
REMARK    9  A    between atoms: _28  and  _29
REMARK   10  A    between atoms: _31  and  _33
REMARK   11  A    between atoms: _33  and  _34
REMARK   12  A    between atoms: _33  and  _36
REMARK   13  A    between atoms: _36  and  _37
REMARK   14  A    between atoms: _40  and  _41
REMARK   15  A    between atoms: _46  and  _48
REMARK   16  A    between atoms: _48  and  _49
REMARK   17  A    between atoms: _48  and  _51
REMARK   18  A    between atoms: _51  and  _52
REMARK   19  A    between atoms: _57  and  _59
REMARK   20  A    between atoms: _59  and  _60
REMARK   21  A    between atoms: _59  and  _62
REMARK   22  A    between atoms: _62  and  _63
REMARK   23  A    between atoms: _68  and  _70
REMARK   24  A    between atoms: _70  and  _71
REMARK   25  A    between atoms: _74  and  _76
REMARK   26  A    between atoms: _76  and  _77
REMARK   27  A    between atoms: _76  and  _79
REMARK   28  A    between atoms: _79  and  _80
REMARK   29  A    between atoms: _85  and  _87
REMARK   30  A    between atoms: _87  and  _88
REMARK   31  A    between atoms: _87  and  _90
REMARK   32  A    between atoms: _90  and  _91
REMARK   33  A    between atoms: _94  and  _96
REMARK   34  A    between atoms: _96  and  _97
REMARK   35  A    between atoms: _96  and  _99
REMARK   36  A    between atoms: _99  and  _100
REMARK   37  A    between atoms: _100  and  _101
REMARK   38  A    between atoms: _106  and  _108
REMARK   39  A    between atoms: _108  and  _109
REMARK   40  A    between atoms: _108  and  _111
REMARK   41  A    between atoms: _111  and  _112
REMARK   42  A    between atoms: _118  and  _120
REMARK   43  A    between atoms: _131  and  _134
REMARK   44  A    between atoms: _134  and  _135
REMARK   45  A    between atoms: _143  and  _144
REMARK   46  A    between atoms: _152  and  _154
REMARK   47  A    between atoms: _154  and  _155
REMARK   48  A    between atoms: _154  and  _157
REMARK   49  A    between atoms: _157  and  _158
REMARK   50  A    between atoms: _158  and  _159
REMARK   51  A    between atoms: _162  and  _164
REMARK   52  A    between atoms: _164  and  _165
REMARK   53  A    between atoms: _164  and  _167
REMARK   54  A    between atoms: _167  and  _168
REMARK   55  A    between atoms: _173  and  _175
REMARK   56  A    between atoms: _175  and  _176
REMARK   57  A    between atoms: _175  and  _178
REMARK   58  A    between atoms: _178  and  _179
REMARK   59  A    between atoms: _179  and  _180
REMARK   60  A    between atoms: _183  and  _185
REMARK   61  A    between atoms: _185  and  _186
REMARK   62  A    between atoms: _185  and  _188
REMARK   63  A    between atoms: _188  and  _189
REMARK   64  A    between atoms: _192  and  _194
REMARK   65  A    between atoms: _194  and  _195
REMARK   66  A    between atoms: _194  and  _197
REMARK   67  A    between atoms: _197  and  _198
REMARK   68  A    between atoms: _199  and  ZN_419
REMARK   69  A    between atoms: _203  and  _205
REMARK   70  A    between atoms: _205  and  _206
REMARK   71  A    between atoms: _205  and  _208
REMARK   72  A    between atoms: _208  and  _209
REMARK   73  A    between atoms: _212  and  _214
REMARK   74  A    between atoms: _214  and  _215
REMARK   75  A    between atoms: _214  and  _217
REMARK   76  A    between atoms: _220  and  _222
REMARK   77  A    between atoms: _222  and  _223
REMARK   78  A    between atoms: _222  and  _225
REMARK   79  A    between atoms: _225  and  _226
REMARK   80  A    between atoms: _231  and  _233
REMARK   81  A    between atoms: _233  and  _234
REMARK   82  A    between atoms: _233  and  _236
REMARK   83  A    between atoms: _236  and  _237
REMARK   84  A    between atoms: _243  and  _245
REMARK   85  A    between atoms: _245  and  _246
REMARK   86  A    between atoms: _245  and  _248
REMARK   87  A    between atoms: _251  and  _253
REMARK   88  A    between atoms: _253  and  _254
REMARK   89  A    between atoms: _253  and  _256
REMARK   90  A    between atoms: _256  and  _257
REMARK   91  A    between atoms: _260  and  _262
REMARK   92  A    between atoms: _262  and  _263
REMARK   93  A    between atoms: _266  and  _268
REMARK   94  A    between atoms: _268  and  _269
REMARK   95  A    between atoms: _268  and  _271
REMARK   96  A    between atoms: _274  and  _276
REMARK   97  A    between atoms: _276  and  _277
REMARK   98  A    between atoms: _276  and  _279
REMARK   99  A    between atoms: _279  and  _280
REMARK  100  A    between atoms: _283  and  _285
REMARK  101  A    between atoms: _285  and  _286
REMARK  102  A    between atoms: _288  and  _290
REMARK  103  A    between atoms: _290  and  _291
REMARK  104  A    between atoms: _293  and  _295
REMARK  105  A    between atoms: _295  and  _296
REMARK  106  A    between atoms: _295  and  _298
REMARK  107  A    between atoms: _298  and  _299
REMARK  108  A    between atoms: _301  and  _303
REMARK  109  A    between atoms: _303  and  _304
REMARK  110  A    between atoms: _303  and  _306
REMARK  111  A    between atoms: _306  and  _307
REMARK  112  A    between atoms: _310  and  _312
REMARK  113  A    between atoms: _312  and  _313
REMARK  114  A    between atoms: _312  and  _315
REMARK  115  A    between atoms: _315  and  _316
REMARK  116  A    between atoms: _319  and  _321
REMARK  117  A    between atoms: _321  and  _322
REMARK  118  A    between atoms: _321  and  _324
REMARK  119  A    between atoms: _324  and  _325
REMARK  120  A    between atoms: _329  and  _330
REMARK  121  A    between atoms: _336  and  _337
REMARK  122  A    between atoms: _342  and  _344
REMARK  123  A    between atoms: _344  and  _345
REMARK  124  A    between atoms: _344  and  _347
REMARK  125  A    between atoms: _347  and  _348
REMARK  126  A    between atoms: _351  and  _353
REMARK  127  A    between atoms: _353  and  _354
REMARK  128  A    between atoms: _353  and  _356
REMARK  129  A    between atoms: _356  and  _357
REMARK  130  A    between atoms: _360  and  _362
REMARK  131  A    between atoms: _362  and  _363
REMARK  132  A    between atoms: _362  and  _365
REMARK  133  A    between atoms: _367  and  _369
REMARK  134  A    between atoms: _369  and  _370
REMARK  135  A    between atoms: _369  and  _372
REMARK  136  A    between atoms: _375  and  _377
REMARK  137  A    between atoms: _377  and  _378
REMARK  138  A    between atoms: _377  and  _380
REMARK  139  A    between atoms: _380  and  _381
REMARK  140  A    between atoms: _391  and  _393
REMARK  141  A    between atoms: _393  and  _394
REMARK  142  A    between atoms: _393  and  _396
REMARK  143  A    between atoms: _396  and  _397
REMARK  144  A    between atoms: _402  and  _404
REMARK  145  A    between atoms: _404  and  _405
REMARK  146  A    between atoms: _404  and  _407
REMARK  147  A    between atoms: _407  and  _408
REMARK  148  A    between atoms: _408  and  _409
REMARK  149  A    between atoms: _409  and  _410
REMARK                            x       y       z     vdW  Elec       q    Type
REMARK                         _______ _______ _______ _____ _____    ______ ____
ROOT
ATOM      1  O   HOH     1      14.675   8.421  10.897  0.00  0.00    +0.000 OA
ENDROOT
TORSDOF 0
REMARK  Name = ../refined-set-2016/2q38/2q38_pocket.pdb
REMARK  149 active torsions:
REMARK  status: ('A' for Active; 'I' for Inactive)
REMARK    1  A    between atoms: _1  and  _3
REMARK    2  A    between atoms: _3  and  _4
REMARK    3  A    between atoms: _3  and  _6
REMARK    4  A    between atoms: _6  and  _7
REMARK    5  A    between atoms: _17  and  _19
REMARK    6  A    between atoms: _19  and  _20
REMARK    7  A    between atoms: _19  and  _22
REMARK    8  A    between atoms: _22  and  _23
REMARK    9  A    between atoms: _28  and  _29
REMARK   10  A    between atoms: _31  and  _33
REMARK   11  A    between atoms: _33  and  _34
REMARK   12  A    between atoms: _33  and  _36
REMARK   13  A    between atoms: _36  and  _37
REMARK   14  A    between atoms: _40  and  _41
REMARK   15  A    between atoms: _46  and  _48
REMARK   16  A    between atoms: _48  and  _49
REMARK   17  A    between atoms: _48  and  _51
REMARK   18  A    between atoms: _51  and  _52
REMARK   19  A    between atoms: _57  and  _59
REMARK   20  A    between atoms: _59  and  _60
REMARK   21  A    between atoms: _59  and  _62
REMARK   22  A    between atoms: _62  and  _63
REMARK   23  A    between atoms: _68  and  _70
REMARK   24  A    between atoms: _70  and  _71
REMARK   25  A    between atoms: _74  and  _76
REMARK   26  A    between atoms: _76  and  _77
REMARK   27  A    between atoms: _76  and  _79
REMARK   28  A    between atoms: _79  and  _80
REMARK   29  A    between atoms: _85  and  _87
REMARK   30  A    between atoms: _87  and  _88
REMARK   31  A    between atoms: _87  and  _90
REMARK   32  A    between atoms: _90  and  _91
REMARK   33  A    between atoms: _94  and  _96
REMARK   34  A    between atoms: _96  and  _97
REMARK   35  A    between atoms: _96  and  _99
REMARK   36  A    between atoms: _99  and  _100
REMARK   37  A    between atoms: _100  and  _101
REMARK   38  A    between atoms: _106  and  _108
REMARK   39  A    between atoms: _108  and  _109
REMARK   40  A    between atoms: _108  and  _111
REMARK   41  A    between atoms: _111  and  _112
REMARK   42  A    between atoms: _118  and  _120
REMARK   43  A    between atoms: _131  and  _134
REMARK   44  A    between atoms: _134  and  _135
REMARK   45  A    between atoms: _143  and  _144
REMARK   46  A    between atoms: _152  and  _154
REMARK   47  A    between atoms: _154  and  _155
REMARK   48  A    between atoms: _154  and  _157
REMARK   49  A    between atoms: _157  and  _158
REMARK   50  A    between atoms: _158  and  _159
REMARK   51  A    between atoms: _162  and  _164
REMARK   52  A    between atoms: _164  and  _165
REMARK   53  A    between atoms: _164  and  _167
REMARK   54  A    between atoms: _167  and  _168
REMARK   55  A    between atoms: _173  and  _175
REMARK   56  A    between atoms: _175  and  _176
REMARK   57  A    between atoms: _175  and  _178
REMARK   58  A    between atoms: _178  and  _179
REMARK   59  A    between atoms: _179  and  _180
REMARK   60  A    between atoms: _183  and  _185
REMARK   61  A    between atoms: _185  and  _186
REMARK   62  A    between atoms: _185  and  _188
REMARK   63  A    between atoms: _188  and  _189
REMARK   64  A    between atoms: _192  and  _194
REMARK   65  A    between atoms: _194  and  _195
REMARK   66  A    between atoms: _194  and  _197
REMARK   67  A    between atoms: _197  and  _198
REMARK   68  A    between atoms: _199  and  ZN_419
REMARK   69  A    between atoms: _203  and  _205
REMARK   70  A    between atoms: _205  and  _206
REMARK   71  A    between atoms: _205  and  _208
REMARK   72  A    between atoms: _208  and  _209
REMARK   73  A    between atoms: _212  and  _214
REMARK   74  A    between atoms: _214  and  _215
REMARK   75  A    between atoms: _214  and  _217
REMARK   76  A    between atoms: _220  and  _222
REMARK   77  A    between atoms: _222  and  _223
REMARK   78  A    between atoms: _222  and  _225
REMARK   79  A    between atoms: _225  and  _226
REMARK   80  A    between atoms: _231  and  _233
REMARK   81  A    between atoms: _233  and  _234
REMARK   82  A    between atoms: _233  and  _236
REMARK   83  A    between atoms: _236  and  _237
REMARK   84  A    between atoms: _243  and  _245
REMARK   85  A    between atoms: _245  and  _246
REMARK   86  A    between atoms: _245  and  _248
REMARK   87  A    between atoms: _251  and  _253
REMARK   88  A    between atoms: _253  and  _254
REMARK   89  A    between atoms: _253  and  _256
REMARK   90  A    between atoms: _256  and  _257
REMARK   91  A    between atoms: _260  and  _262
REMARK   92  A    between atoms: _262  and  _263
REMARK   93  A    between atoms: _266  and  _268
REMARK   94  A    between atoms: _268  and  _269
REMARK   95  A    between atoms: _268  and  _271
REMARK   96  A    between atoms: _274  and  _276
REMARK   97  A    between atoms: _276  and  _277
REMARK   98  A    between atoms: _276  and  _279
REMARK   99  A    between atoms: _279  and  _280
REMARK  100  A    between atoms: _283  and  _285
REMARK  101  A    between atoms: _285  and  _286
REMARK  102  A    between atoms: _288  and  _290
REMARK  103  A    between atoms: _290  and  _291
REMARK  104  A    between atoms: _293  and  _295
REMARK  105  A    between atoms: _295  and  _296
REMARK  106  A    between atoms: _295  and  _298
REMARK  107  A    between atoms: _298  and  _299
REMARK  108  A    between atoms: _301  and  _303
REMARK  109  A    between atoms: _303  and  _304
REMARK  110  A    between atoms: _303  and  _306
REMARK  111  A    between atoms: _306  and  _307
REMARK  112  A    between atoms: _310  and  _312
REMARK  113  A    between atoms: _312  and  _313
REMARK  114  A    between atoms: _312  and  _315
REMARK  115  A    between atoms: _315  and  _316
REMARK  116  A    between atoms: _319  and  _321
REMARK  117  A    between atoms: _321  and  _322
REMARK  118  A    between atoms: _321  and  _324
REMARK  119  A    between atoms: _324  and  _325
REMARK  120  A    between atoms: _329  and  _330
REMARK  121  A    between atoms: _336  and  _337
REMARK  122  A    between atoms: _342  and  _344
REMARK  123  A    between atoms: _344  and  _345
REMARK  124  A    between atoms: _344  and  _347
REMARK  125  A    between atoms: _347  and  _348
REMARK  126  A    between atoms: _351  and  _353
REMARK  127  A    between atoms: _353  and  _354
REMARK  128  A    between atoms: _353  and  _356
REMARK  129  A    between atoms: _356  and  _357
REMARK  130  A    between atoms: _360  and  _362
REMARK  131  A    between atoms: _362  and  _363
REMARK  132  A    between atoms: _362  and  _365
REMARK  133  A    between atoms: _367  and  _369
REMARK  134  A    between atoms: _369  and  _370
REMARK  135  A    between atoms: _369  and  _372
REMARK  136  A    between atoms: _375  and  _377
REMARK  137  A    between atoms: _377  and  _378
REMARK  138  A    between atoms: _377  and  _380
REMARK  139  A    between atoms: _380  and  _381
REMARK  140  A    between atoms: _391  and  _393
REMARK  141  A    between atoms: _393  and  _394
REMARK  142  A    between atoms: _393  and  _396
REMARK  143  A    between atoms: _396  and  _397
REMARK  144  A    between atoms: _402  and  _404
REMARK  145  A    between atoms: _404  and  _405
REMARK  146  A    between atoms: _404  and  _407
REMARK  147  A    between atoms: _407  and  _408
REMARK  148  A    between atoms: _408  and  _409
REMARK  149  A    between atoms: _409  and  _410
REMARK                            x       y       z     vdW  Elec       q    Type
REMARK                         _______ _______ _______ _____ _____    ______ ____
ROOT
ATOM      1  O   HOH     1      19.248   8.323  13.444  0.00  0.00    +0.000 OA
ENDROOT
TORSDOF 0
REMARK  Name = ../refined-set-2016/2q38/2q38_pocket.pdb
REMARK  149 active torsions:
REMARK  status: ('A' for Active; 'I' for Inactive)
REMARK    1  A    between atoms: _1  and  _3
REMARK    2  A    between atoms: _3  and  _4
REMARK    3  A    between atoms: _3  and  _6
REMARK    4  A    between atoms: _6  and  _7
REMARK    5  A    between atoms: _17  and  _19
REMARK    6  A    between atoms: _19  and  _20
REMARK    7  A    between atoms: _19  and  _22
REMARK    8  A    between atoms: _22  and  _23
REMARK    9  A    between atoms: _28  and  _29
REMARK   10  A    between atoms: _31  and  _33
REMARK   11  A    between atoms: _33  and  _34
REMARK   12  A    between atoms: _33  and  _36
REMARK   13  A    between atoms: _36  and  _37
REMARK   14  A    between atoms: _40  and  _41
REMARK   15  A    between atoms: _46  and  _48
REMARK   16  A    between atoms: _48  and  _49
REMARK   17  A    between atoms: _48  and  _51
REMARK   18  A    between atoms: _51  and  _52
REMARK   19  A    between atoms: _57  and  _59
REMARK   20  A    between atoms: _59  and  _60
REMARK   21  A    between atoms: _59  and  _62
REMARK   22  A    between atoms: _62  and  _63
REMARK   23  A    between atoms: _68  and  _70
REMARK   24  A    between atoms: _70  and  _71
REMARK   25  A    between atoms: _74  and  _76
REMARK   26  A    between atoms: _76  and  _77
REMARK   27  A    between atoms: _76  and  _79
REMARK   28  A    between atoms: _79  and  _80
REMARK   29  A    between atoms: _85  and  _87
REMARK   30  A    between atoms: _87  and  _88
REMARK   31  A    between atoms: _87  and  _90
REMARK   32  A    between atoms: _90  and  _91
REMARK   33  A    between atoms: _94  and  _96
REMARK   34  A    between atoms: _96  and  _97
REMARK   35  A    between atoms: _96  and  _99
REMARK   36  A    between atoms: _99  and  _100
REMARK   37  A    between atoms: _100  and  _101
REMARK   38  A    between atoms: _106  and  _108
REMARK   39  A    between atoms: _108  and  _109
REMARK   40  A    between atoms: _108  and  _111
REMARK   41  A    between atoms: _111  and  _112
REMARK   42  A    between atoms: _118  and  _120
REMARK   43  A    between atoms: _131  and  _134
REMARK   44  A    between atoms: _134  and  _135
REMARK   45  A    between atoms: _143  and  _144
REMARK   46  A    between atoms: _152  and  _154
REMARK   47  A    between atoms: _154  and  _155
REMARK   48  A    between atoms: _154  and  _157
REMARK   49  A    between atoms: _157  and  _158
REMARK   50  A    between atoms: _158  and  _159
REMARK   51  A    between atoms: _162  and  _164
REMARK   52  A    between atoms: _164  and  _165
REMARK   53  A    between atoms: _164  and  _167
REMARK   54  A    between atoms: _167  and  _168
REMARK   55  A    between atoms: _173  and  _175
REMARK   56  A    between atoms: _175  and  _176
REMARK   57  A    between atoms: _175  and  _178
REMARK   58  A    between atoms: _178  and  _179
REMARK   59  A    between atoms: _179  and  _180
REMARK   60  A    between atoms: _183  and  _185
REMARK   61  A    between atoms: _185  and  _186
REMARK   62  A    between atoms: _185  and  _188
REMARK   63  A    between atoms: _188  and  _189
REMARK   64  A    between atoms: _192  and  _194
REMARK   65  A    between atoms: _194  and  _195
REMARK   66  A    between atoms: _194  and  _197
REMARK   67  A    between atoms: _197  and  _198
REMARK   68  A    between atoms: _199  and  ZN_419
REMARK   69  A    between atoms: _203  and  _205
REMARK   70  A    between atoms: _205  and  _206
REMARK   71  A    between atoms: _205  and  _208
REMARK   72  A    between atoms: _208  and  _209
REMARK   73  A    between atoms: _212  and  _214
REMARK   74  A    between atoms: _214  and  _215
REMARK   75  A    between atoms: _214  and  _217
REMARK   76  A    between atoms: _220  and  _222
REMARK   77  A    between atoms: _222  and  _223
REMARK   78  A    between atoms: _222  and  _225
REMARK   79  A    between atoms: _225  and  _226
REMARK   80  A    between atoms: _231  and  _233
REMARK   81  A    between atoms: _233  and  _234
REMARK   82  A    between atoms: _233  and  _236
REMARK   83  A    between atoms: _236  and  _237
REMARK   84  A    between atoms: _243  and  _245
REMARK   85  A    between atoms: _245  and  _246
REMARK   86  A    between atoms: _245  and  _248
REMARK   87  A    between atoms: _251  and  _253
REMARK   88  A    between atoms: _253  and  _254
REMARK   89  A    between atoms: _253  and  _256
REMARK   90  A    between atoms: _256  and  _257
REMARK   91  A    between atoms: _260  and  _262
REMARK   92  A    between atoms: _262  and  _263
REMARK   93  A    between atoms: _266  and  _268
REMARK   94  A    between atoms: _268  and  _269
REMARK   95  A    between atoms: _268  and  _271
REMARK   96  A    between atoms: _274  and  _276
REMARK   97  A    between atoms: _276  and  _277
REMARK   98  A    between atoms: _276  and  _279
REMARK   99  A    between atoms: _279  and  _280
REMARK  100  A    between atoms: _283  and  _285
REMARK  101  A    between atoms: _285  and  _286
REMARK  102  A    between atoms: _288  and  _290
REMARK  103  A    between atoms: _290  and  _291
REMARK  104  A    between atoms: _293  and  _295
REMARK  105  A    between atoms: _295  and  _296
REMARK  106  A    between atoms: _295  and  _298
REMARK  107  A    between atoms: _298  and  _299
REMARK  108  A    between atoms: _301  and  _303
REMARK  109  A    between atoms: _303  and  _304
REMARK  110  A    between atoms: _303  and  _306
REMARK  111  A    between atoms: _306  and  _307
REMARK  112  A    between atoms: _310  and  _312
REMARK  113  A    between atoms: _312  and  _313
REMARK  114  A    between atoms: _312  and  _315
REMARK  115  A    between atoms: _315  and  _316
REMARK  116  A    between atoms: _319  and  _321
REMARK  117  A    between atoms: _321  and  _322
REMARK  118  A    between atoms: _321  and  _324
REMARK  119  A    between atoms: _324  and  _325
REMARK  120  A    between atoms: _329  and  _330
REMARK  121  A    between atoms: _336  and  _337
REMARK  122  A    between atoms: _342  and  _344
REMARK  123  A    between atoms: _344  and  _345
REMARK  124  A    between atoms: _344  and  _347
REMARK  125  A    between atoms: _347  and  _348
REMARK  126  A    between atoms: _351  and  _353
REMARK  127  A    between atoms: _353  and  _354
REMARK  128  A    between atoms: _353  and  _356
REMARK  129  A    between atoms: _356  and  _357
REMARK  130  A    between atoms: _360  and  _362
REMARK  131  A    between atoms: _362  and  _363
REMARK  132  A    between atoms: _362  and  _365
REMARK  133  A    between atoms: _367  and  _369
REMARK  134  A    between atoms: _369  and  _370
REMARK  135  A    between atoms: _369  and  _372
REMARK  136  A    between atoms: _375  and  _377
REMARK  137  A    between atoms: _377  and  _378
REMARK  138  A    between atoms: _377  and  _380
REMARK  139  A    between atoms: _380  and  _381
REMARK  140  A    between atoms: _391  and  _393
REMARK  141  A    between atoms: _393  and  _394
REMARK  142  A    between atoms: _393  and  _396
REMARK  143  A    between atoms: _396  and  _397
REMARK  144  A    between atoms: _402  and  _404
REMARK  145  A    between atoms: _404  and  _405
REMARK  146  A    between atoms: _404  and  _407
REMARK  147  A    between atoms: _407  and  _408
REMARK  148  A    between atoms: _408  and  _409
REMARK  149  A    between atoms: _409  and  _410
REMARK                            x       y       z     vdW  Elec       q    Type
REMARK                         _______ _______ _______ _____ _____    ______ ____
ROOT
ATOM      1  O   HOH     1      18.064   6.993   6.888  0.00  0.00    +0.000 OA
ENDROOT
TORSDOF 0
