REMARK  Name = ../refined-set-2016/3g2n/3g2n_pocket.pdb
REMARK  248 active torsions:
REMARK  status: ('A' for Active; 'I' for Inactive)
REMARK    1  A    between atoms: _1  and  _3
REMARK    2  A    between atoms: _3  and  _4
REMARK    3  A    between atoms: _3  and  _6
REMARK    4  A    between atoms: _6  and  _7
REMARK    5  A    between atoms: _12  and  _13
REMARK    6  A    between atoms: _15  and  _17
REMARK    7  A    between atoms: _17  and  _18
REMARK    8  A    between atoms: _17  and  _20
REMARK    9  A    between atoms: _20  and  _21
REMARK   10  A    between atoms: _21  and  _22
REMARK   11  A    between atoms: _25  and  _27
REMARK   12  A    between atoms: _27  and  _28
REMARK   13  A    between atoms: _27  and  _30
REMARK   14  A    between atoms: _30  and  _31
REMARK   15  A    between atoms: _36  and  _38
REMARK   16  A    between atoms: _38  and  _39
REMARK   17  A    between atoms: _41  and  _43
REMARK   18  A    between atoms: _43  and  _44
REMARK   19  A    between atoms: _46  and  _48
REMARK   20  A    between atoms: _48  and  _49
REMARK   21  A    between atoms: _48  and  _51
REMARK   22  A    between atoms: _51  and  _52
REMARK   23  A    between atoms: _55  and  _57
REMARK   24  A    between atoms: _57  and  _58
REMARK   25  A    between atoms: _60  and  _62
REMARK   26  A    between atoms: _62  and  _63
REMARK   27  A    between atoms: _62  and  _65
REMARK   28  A    between atoms: _65  and  _66
REMARK   29  A    between atoms: _66  and  _67
REMARK   30  A    between atoms: _67  and  _68
REMARK   31  A    between atoms: _77  and  _79
REMARK   32  A    between atoms: _79  and  _80
REMARK   33  A    between atoms: _79  and  _82
REMARK   34  A    between atoms: _82  and  _83
REMARK   35  A    between atoms: _86  and  _88
REMARK   36  A    between atoms: _88  and  _89
REMARK   37  A    between atoms: _92  and  _94
REMARK   38  A    between atoms: _94  and  _95
REMARK   39  A    between atoms: _94  and  _97
REMARK   40  A    between atoms: _97  and  _98
REMARK   41  A    between atoms: _104  and  _106
REMARK   42  A    between atoms: _106  and  _107
REMARK   43  A    between atoms: _106  and  _109
REMARK   44  A    between atoms: _109  and  _110
REMARK   45  A    between atoms: _115  and  _117
REMARK   46  A    between atoms: _117  and  _118
REMARK   47  A    between atoms: _117  and  _120
REMARK   48  A    between atoms: _120  and  _121
REMARK   49  A    between atoms: _124  and  _126
REMARK   50  A    between atoms: _126  and  _127
REMARK   51  A    between atoms: _126  and  _129
REMARK   52  A    between atoms: _129  and  _130
REMARK   53  A    between atoms: _135  and  _137
REMARK   54  A    between atoms: _137  and  _138
REMARK   55  A    between atoms: _137  and  _140
REMARK   56  A    between atoms: _140  and  _141
REMARK   57  A    between atoms: _147  and  _149
REMARK   58  A    between atoms: _149  and  _150
REMARK   59  A    between atoms: _149  and  _152
REMARK   60  A    between atoms: _152  and  _153
REMARK   61  A    between atoms: _159  and  _161
REMARK   62  A    between atoms: _161  and  _162
REMARK   63  A    between atoms: _161  and  _164
REMARK   64  A    between atoms: _164  and  _165
REMARK   65  A    between atoms: _165  and  _166
REMARK   66  A    between atoms: _166  and  _167
REMARK   67  A    between atoms: _176  and  _178
REMARK   68  A    between atoms: _178  and  _179
REMARK   69  A    between atoms: _178  and  _181
REMARK   70  A    between atoms: _181  and  _182
REMARK   71  A    between atoms: _187  and  _189
REMARK   72  A    between atoms: _189  and  _190
REMARK   73  A    between atoms: _189  and  _192
REMARK   74  A    between atoms: _192  and  _193
REMARK   75  A    between atoms: _196  and  _198
REMARK   76  A    between atoms: _198  and  _199
REMARK   77  A    between atoms: _198  and  _201
REMARK   78  A    between atoms: _201  and  _202
REMARK   79  A    between atoms: _205  and  _207
REMARK   80  A    between atoms: _207  and  _208
REMARK   81  A    between atoms: _207  and  _210
REMARK   82  A    between atoms: _210  and  _211
REMARK   83  A    between atoms: _216  and  _218
REMARK   84  A    between atoms: _218  and  _219
REMARK   85  A    between atoms: _218  and  _221
REMARK   86  A    between atoms: _221  and  _222
REMARK   87  A    between atoms: _227  and  _228
REMARK   88  A    between atoms: _230  and  _232
REMARK   89  A    between atoms: _232  and  _233
REMARK   90  A    between atoms: _232  and  _235
REMARK   91  A    between atoms: _235  and  _236
REMARK   92  A    between atoms: _239  and  _241
REMARK   93  A    between atoms: _241  and  _242
REMARK   94  A    between atoms: _241  and  _244
REMARK   95  A    between atoms: _244  and  _245
REMARK   96  A    between atoms: _250  and  _252
REMARK   97  A    between atoms: _252  and  _253
REMARK   98  A    between atoms: _252  and  _255
REMARK   99  A    between atoms: _255  and  _256
REMARK  100  A    between atoms: _261  and  _263
REMARK  101  A    between atoms: _263  and  _264
REMARK  102  A    between atoms: _263  and  _266
REMARK  103  A    between atoms: _266  and  _267
REMARK  104  A    between atoms: _270  and  _272
REMARK  105  A    between atoms: _272  and  _273
REMARK  106  A    between atoms: _272  and  _275
REMARK  107  A    between atoms: _278  and  _280
REMARK  108  A    between atoms: _280  and  _281
REMARK  109  A    between atoms: _280  and  _283
REMARK  110  A    between atoms: _283  and  _284
REMARK  111  A    between atoms: _287  and  _289
REMARK  112  A    between atoms: _289  and  _290
REMARK  113  A    between atoms: _289  and  _292
REMARK  114  A    between atoms: _292  and  _293
REMARK  115  A    between atoms: _293  and  _294
REMARK  116  A    between atoms: _297  and  _299
REMARK  117  A    between atoms: _299  and  _300
REMARK  118  A    between atoms: _303  and  _305
REMARK  119  A    between atoms: _305  and  _306
REMARK  120  A    between atoms: _305  and  _308
REMARK  121  A    between atoms: _308  and  _309
REMARK  122  A    between atoms: _312  and  _314
REMARK  123  A    between atoms: _314  and  _315
REMARK  124  A    between atoms: _314  and  _317
REMARK  125  A    between atoms: _317  and  _318
REMARK  126  A    between atoms: _318  and  _319
REMARK  127  A    between atoms: _322  and  _324
REMARK  128  A    between atoms: _324  and  _325
REMARK  129  A    between atoms: _324  and  _327
REMARK  130  A    between atoms: _327  and  _328
REMARK  131  A    between atoms: _333  and  _335
REMARK  132  A    between atoms: _335  and  _336
REMARK  133  A    between atoms: _338  and  _340
REMARK  134  A    between atoms: _340  and  _341
REMARK  135  A    between atoms: _340  and  _343
REMARK  136  A    between atoms: _346  and  _348
REMARK  137  A    between atoms: _348  and  _349
REMARK  138  A    between atoms: _352  and  _354
REMARK  139  A    between atoms: _354  and  _355
REMARK  140  A    between atoms: _354  and  _357
REMARK  141  A    between atoms: _357  and  _358
REMARK  142  A    between atoms: _363  and  _365
REMARK  143  A    between atoms: _365  and  _366
REMARK  144  A    between atoms: _365  and  _368
REMARK  145  A    between atoms: _368  and  _369
REMARK  146  A    between atoms: _369  and  _370
REMARK  147  A    between atoms: _370  and  _371
REMARK  148  A    between atoms: _371  and  _372
REMARK  149  A    between atoms: _376  and  _378
REMARK  150  A    between atoms: _378  and  _379
REMARK  151  A    between atoms: _378  and  _381
REMARK  152  A    between atoms: _381  and  _382
REMARK  153  A    between atoms: _385  and  _387
REMARK  154  A    between atoms: _387  and  _388
REMARK  155  A    between atoms: _387  and  _390
REMARK  156  A    between atoms: _390  and  _391
REMARK  157  A    between atoms: _396  and  _398
REMARK  158  A    between atoms: _398  and  _399
REMARK  159  A    between atoms: _401  and  _403
REMARK  160  A    between atoms: _403  and  _404
REMARK  161  A    between atoms: _403  and  _406
REMARK  162  A    between atoms: _406  and  _407
REMARK  163  A    between atoms: _407  and  _408
REMARK  164  A    between atoms: _408  and  _409
REMARK  165  A    between atoms: _409  and  _410
REMARK  166  A    between atoms: _414  and  _416
REMARK  167  A    between atoms: _416  and  _417
REMARK  168  A    between atoms: _416  and  _419
REMARK  169  A    between atoms: _419  and  _420
REMARK  170  A    between atoms: _420  and  _421
REMARK  171  A    between atoms: _421  and  _422
REMARK  172  A    between atoms: _431  and  _433
REMARK  173  A    between atoms: _433  and  _434
REMARK  174  A    between atoms: _433  and  _436
REMARK  175  A    between atoms: _436  and  _437
REMARK  176  A    between atoms: _442  and  _444
REMARK  177  A    between atoms: _444  and  _445
REMARK  178  A    between atoms: _444  and  _447
REMARK  179  A    between atoms: _447  and  _448
REMARK  180  A    between atoms: _453  and  _454
REMARK  181  A    between atoms: _456  and  _458
REMARK  182  A    between atoms: _458  and  _459
REMARK  183  A    between atoms: _458  and  _461
REMARK  184  A    between atoms: _461  and  _462
REMARK  185  A    between atoms: _462  and  _463
REMARK  186  A    between atoms: _463  and  _464
REMARK  187  A    between atoms: _464  and  _465
REMARK  188  A    between atoms: _469  and  _471
REMARK  189  A    between atoms: _471  and  _472
REMARK  190  A    between atoms: _471  and  _474
REMARK  191  A    between atoms: _474  and  _475
REMARK  192  A    between atoms: _477  and  _479
REMARK  193  A    between atoms: _479  and  _480
REMARK  194  A    between atoms: _479  and  _482
REMARK  195  A    between atoms: _482  and  _483
REMARK  196  A    between atoms: _486  and  _488
REMARK  197  A    between atoms: _488  and  _489
REMARK  198  A    between atoms: _488  and  _491
REMARK  199  A    between atoms: _491  and  _492
REMARK  200  A    between atoms: _492  and  _493
REMARK  201  A    between atoms: _496  and  _498
REMARK  202  A    between atoms: _498  and  _499
REMARK  203  A    between atoms: _502  and  _504
REMARK  204  A    between atoms: _504  and  _505
REMARK  205  A    between atoms: _504  and  _507
REMARK  206  A    between atoms: _507  and  _508
REMARK  207  A    between atoms: _510  and  _512
REMARK  208  A    between atoms: _512  and  _513
REMARK  209  A    between atoms: _515  and  _517
REMARK  210  A    between atoms: _517  and  _518
REMARK  211  A    between atoms: _517  and  _520
REMARK  212  A    between atoms: _520  and  _521
REMARK  213  A    between atoms: _524  and  _526
REMARK  214  A    between atoms: _526  and  _527
REMARK  215  A    between atoms: _529  and  _531
REMARK  216  A    between atoms: _531  and  _532
REMARK  217  A    between atoms: _531  and  _534
REMARK  218  A    between atoms: _534  and  _535
REMARK  219  A    between atoms: _540  and  _542
REMARK  220  A    between atoms: _542  and  _543
REMARK  221  A    between atoms: _542  and  _545
REMARK  222  A    between atoms: _545  and  _546
REMARK  223  A    between atoms: _546  and  _547
REMARK  224  A    between atoms: _554  and  _555
REMARK  225  A    between atoms: _555  and  _571
REMARK  226  A    between atoms: _556  and  _558
REMARK  227  A    between atoms: _558  and  _559
REMARK  228  A    between atoms: _559  and  _560
REMARK  229  A    between atoms: _564  and  _566
REMARK  230  A    between atoms: _566  and  _567
REMARK  231  A    between atoms: _566  and  _574
REMARK  232  A    between atoms: _567  and  _568
REMARK  233  A    between atoms: _568  and  _569
REMARK  234  A    between atoms: _569  and  _570
REMARK  235  A    between atoms: _570  and  _571
REMARK  236  A    between atoms: _576  and  _578
REMARK  237  A    between atoms: _578  and  _579
REMARK  238  A    between atoms: _578  and  _581
REMARK  239  A    between atoms: _581  and  _582
REMARK  240  A    between atoms: _585  and  _587
REMARK  241  A    between atoms: _587  and  _588
REMARK  242  A    between atoms: _590  and  _592
REMARK  243  A    between atoms: _592  and  _593
REMARK  244  A    between atoms: _596  and  _598
REMARK  245  A    between atoms: _598  and  _599
REMARK  246  A    between atoms: _598  and  _601
REMARK  247  A    between atoms: _601  and  _602
REMARK  248  A    between atoms: _607  and  _608
REMARK                            x       y       z     vdW  Elec       q    Type
REMARK                         _______ _______ _______ _____ _____    ______ ____
ROOT
ATOM      1  CG  TYR A   1      33.478  11.355  36.282  0.00  0.00    -0.020 A 
ATOM      2  CD2 TYR A   1      33.082  12.688  36.394  0.00  0.00    -0.001 A 
ATOM      3  CE2 TYR A   1      33.103  13.542  35.292  0.00  0.00    +0.036 A 
ATOM      4  CZ  TYR A   1      33.520  13.063  34.070  0.00  0.00    +0.134 A 
ATOM      5  CE1 TYR A   1      33.918  11.741  33.923  0.00  0.00    +0.036 A 
ATOM      6  CD1 TYR A   1      33.888  10.892  35.028  0.00  0.00    -0.001 A 
ENDROOT
BRANCH   4   7
ATOM      7  OH  TYR A   1      33.528  13.901  32.983  0.00  0.00    -0.506 OA
ATOM      8  HH  TYR A   1      34.128  14.667  33.163  0.00  0.00    +0.292 HD
ENDBRANCH   4   7
BRANCH   1   9
ATOM      9  CB  TYR A   1      33.466  10.436  37.480  0.00  0.00    +0.051 C 
BRANCH   9  10
ATOM     10  CA  TYR A   1      34.809  10.360  38.210  0.00  0.00    +0.137 C 
BRANCH  10  11
ATOM     11  N   TYR A   1      34.850   9.194  39.084  0.00  0.00    -0.239 NA
ATOM     12  H   TYR A   1      33.991   8.931  39.608  0.00  0.00    +0.142 HD
ENDBRANCH  10  11
BRANCH  10  13
ATOM     13  C   TYR A   1      35.044  11.630  39.037  0.00  0.00    +0.224 C 
ATOM     14  O   TYR A   1      34.152  12.093  39.751  0.00  0.00    -0.287 OA
ENDBRANCH  10  13
ENDBRANCH   9  10
ENDBRANCH   1   9
TORSDOF 5
REMARK  Name = ../refined-set-2016/3g2n/3g2n_pocket.pdb
REMARK  248 active torsions:
REMARK  status: ('A' for Active; 'I' for Inactive)
REMARK    1  A    between atoms: _1  and  _3
REMARK    2  A    between atoms: _3  and  _4
REMARK    3  A    between atoms: _3  and  _6
REMARK    4  A    between atoms: _6  and  _7
REMARK    5  A    between atoms: _12  and  _13
REMARK    6  A    between atoms: _15  and  _17
REMARK    7  A    between atoms: _17  and  _18
REMARK    8  A    between atoms: _17  and  _20
REMARK    9  A    between atoms: _20  and  _21
REMARK   10  A    between atoms: _21  and  _22
REMARK   11  A    between atoms: _25  and  _27
REMARK   12  A    between atoms: _27  and  _28
REMARK   13  A    between atoms: _27  and  _30
REMARK   14  A    between atoms: _30  and  _31
REMARK   15  A    between atoms: _36  and  _38
REMARK   16  A    between atoms: _38  and  _39
REMARK   17  A    between atoms: _41  and  _43
REMARK   18  A    between atoms: _43  and  _44
REMARK   19  A    between atoms: _46  and  _48
REMARK   20  A    between atoms: _48  and  _49
REMARK   21  A    between atoms: _48  and  _51
REMARK   22  A    between atoms: _51  and  _52
REMARK   23  A    between atoms: _55  and  _57
REMARK   24  A    between atoms: _57  and  _58
REMARK   25  A    between atoms: _60  and  _62
REMARK   26  A    between atoms: _62  and  _63
REMARK   27  A    between atoms: _62  and  _65
REMARK   28  A    between atoms: _65  and  _66
REMARK   29  A    between atoms: _66  and  _67
REMARK   30  A    between atoms: _67  and  _68
REMARK   31  A    between atoms: _77  and  _79
REMARK   32  A    between atoms: _79  and  _80
REMARK   33  A    between atoms: _79  and  _82
REMARK   34  A    between atoms: _82  and  _83
REMARK   35  A    between atoms: _86  and  _88
REMARK   36  A    between atoms: _88  and  _89
REMARK   37  A    between atoms: _92  and  _94
REMARK   38  A    between atoms: _94  and  _95
REMARK   39  A    between atoms: _94  and  _97
REMARK   40  A    between atoms: _97  and  _98
REMARK   41  A    between atoms: _104  and  _106
REMARK   42  A    between atoms: _106  and  _107
REMARK   43  A    between atoms: _106  and  _109
REMARK   44  A    between atoms: _109  and  _110
REMARK   45  A    between atoms: _115  and  _117
REMARK   46  A    between atoms: _117  and  _118
REMARK   47  A    between atoms: _117  and  _120
REMARK   48  A    between atoms: _120  and  _121
REMARK   49  A    between atoms: _124  and  _126
REMARK   50  A    between atoms: _126  and  _127
REMARK   51  A    between atoms: _126  and  _129
REMARK   52  A    between atoms: _129  and  _130
REMARK   53  A    between atoms: _135  and  _137
REMARK   54  A    between atoms: _137  and  _138
REMARK   55  A    between atoms: _137  and  _140
REMARK   56  A    between atoms: _140  and  _141
REMARK   57  A    between atoms: _147  and  _149
REMARK   58  A    between atoms: _149  and  _150
REMARK   59  A    between atoms: _149  and  _152
REMARK   60  A    between atoms: _152  and  _153
REMARK   61  A    between atoms: _159  and  _161
REMARK   62  A    between atoms: _161  and  _162
REMARK   63  A    between atoms: _161  and  _164
REMARK   64  A    between atoms: _164  and  _165
REMARK   65  A    between atoms: _165  and  _166
REMARK   66  A    between atoms: _166  and  _167
REMARK   67  A    between atoms: _176  and  _178
REMARK   68  A    between atoms: _178  and  _179
REMARK   69  A    between atoms: _178  and  _181
REMARK   70  A    between atoms: _181  and  _182
REMARK   71  A    between atoms: _187  and  _189
REMARK   72  A    between atoms: _189  and  _190
REMARK   73  A    between atoms: _189  and  _192
REMARK   74  A    between atoms: _192  and  _193
REMARK   75  A    between atoms: _196  and  _198
REMARK   76  A    between atoms: _198  and  _199
REMARK   77  A    between atoms: _198  and  _201
REMARK   78  A    between atoms: _201  and  _202
REMARK   79  A    between atoms: _205  and  _207
REMARK   80  A    between atoms: _207  and  _208
REMARK   81  A    between atoms: _207  and  _210
REMARK   82  A    between atoms: _210  and  _211
REMARK   83  A    between atoms: _216  and  _218
REMARK   84  A    between atoms: _218  and  _219
REMARK   85  A    between atoms: _218  and  _221
REMARK   86  A    between atoms: _221  and  _222
REMARK   87  A    between atoms: _227  and  _228
REMARK   88  A    between atoms: _230  and  _232
REMARK   89  A    between atoms: _232  and  _233
REMARK   90  A    between atoms: _232  and  _235
REMARK   91  A    between atoms: _235  and  _236
REMARK   92  A    between atoms: _239  and  _241
REMARK   93  A    between atoms: _241  and  _242
REMARK   94  A    between atoms: _241  and  _244
REMARK   95  A    between atoms: _244  and  _245
REMARK   96  A    between atoms: _250  and  _252
REMARK   97  A    between atoms: _252  and  _253
REMARK   98  A    between atoms: _252  and  _255
REMARK   99  A    between atoms: _255  and  _256
REMARK  100  A    between atoms: _261  and  _263
REMARK  101  A    between atoms: _263  and  _264
REMARK  102  A    between atoms: _263  and  _266
REMARK  103  A    between atoms: _266  and  _267
REMARK  104  A    between atoms: _270  and  _272
REMARK  105  A    between atoms: _272  and  _273
REMARK  106  A    between atoms: _272  and  _275
REMARK  107  A    between atoms: _278  and  _280
REMARK  108  A    between atoms: _280  and  _281
REMARK  109  A    between atoms: _280  and  _283
REMARK  110  A    between atoms: _283  and  _284
REMARK  111  A    between atoms: _287  and  _289
REMARK  112  A    between atoms: _289  and  _290
REMARK  113  A    between atoms: _289  and  _292
REMARK  114  A    between atoms: _292  and  _293
REMARK  115  A    between atoms: _293  and  _294
REMARK  116  A    between atoms: _297  and  _299
REMARK  117  A    between atoms: _299  and  _300
REMARK  118  A    between atoms: _303  and  _305
REMARK  119  A    between atoms: _305  and  _306
REMARK  120  A    between atoms: _305  and  _308
REMARK  121  A    between atoms: _308  and  _309
REMARK  122  A    between atoms: _312  and  _314
REMARK  123  A    between atoms: _314  and  _315
REMARK  124  A    between atoms: _314  and  _317
REMARK  125  A    between atoms: _317  and  _318
REMARK  126  A    between atoms: _318  and  _319
REMARK  127  A    between atoms: _322  and  _324
REMARK  128  A    between atoms: _324  and  _325
REMARK  129  A    between atoms: _324  and  _327
REMARK  130  A    between atoms: _327  and  _328
REMARK  131  A    between atoms: _333  and  _335
REMARK  132  A    between atoms: _335  and  _336
REMARK  133  A    between atoms: _338  and  _340
REMARK  134  A    between atoms: _340  and  _341
REMARK  135  A    between atoms: _340  and  _343
REMARK  136  A    between atoms: _346  and  _348
REMARK  137  A    between atoms: _348  and  _349
REMARK  138  A    between atoms: _352  and  _354
REMARK  139  A    between atoms: _354  and  _355
REMARK  140  A    between atoms: _354  and  _357
REMARK  141  A    between atoms: _357  and  _358
REMARK  142  A    between atoms: _363  and  _365
REMARK  143  A    between atoms: _365  and  _366
REMARK  144  A    between atoms: _365  and  _368
REMARK  145  A    between atoms: _368  and  _369
REMARK  146  A    between atoms: _369  and  _370
REMARK  147  A    between atoms: _370  and  _371
REMARK  148  A    between atoms: _371  and  _372
REMARK  149  A    between atoms: _376  and  _378
REMARK  150  A    between atoms: _378  and  _379
REMARK  151  A    between atoms: _378  and  _381
REMARK  152  A    between atoms: _381  and  _382
REMARK  153  A    between atoms: _385  and  _387
REMARK  154  A    between atoms: _387  and  _388
REMARK  155  A    between atoms: _387  and  _390
REMARK  156  A    between atoms: _390  and  _391
REMARK  157  A    between atoms: _396  and  _398
REMARK  158  A    between atoms: _398  and  _399
REMARK  159  A    between atoms: _401  and  _403
REMARK  160  A    between atoms: _403  and  _404
REMARK  161  A    between atoms: _403  and  _406
REMARK  162  A    between atoms: _406  and  _407
REMARK  163  A    between atoms: _407  and  _408
REMARK  164  A    between atoms: _408  and  _409
REMARK  165  A    between atoms: _409  and  _410
REMARK  166  A    between atoms: _414  and  _416
REMARK  167  A    between atoms: _416  and  _417
REMARK  168  A    between atoms: _416  and  _419
REMARK  169  A    between atoms: _419  and  _420
REMARK  170  A    between atoms: _420  and  _421
REMARK  171  A    between atoms: _421  and  _422
REMARK  172  A    between atoms: _431  and  _433
REMARK  173  A    between atoms: _433  and  _434
REMARK  174  A    between atoms: _433  and  _436
REMARK  175  A    between atoms: _436  and  _437
REMARK  176  A    between atoms: _442  and  _444
REMARK  177  A    between atoms: _444  and  _445
REMARK  178  A    between atoms: _444  and  _447
REMARK  179  A    between atoms: _447  and  _448
REMARK  180  A    between atoms: _453  and  _454
REMARK  181  A    between atoms: _456  and  _458
REMARK  182  A    between atoms: _458  and  _459
REMARK  183  A    between atoms: _458  and  _461
REMARK  184  A    between atoms: _461  and  _462
REMARK  185  A    between atoms: _462  and  _463
REMARK  186  A    between atoms: _463  and  _464
REMARK  187  A    between atoms: _464  and  _465
REMARK  188  A    between atoms: _469  and  _471
REMARK  189  A    between atoms: _471  and  _472
REMARK  190  A    between atoms: _471  and  _474
REMARK  191  A    between atoms: _474  and  _475
REMARK  192  A    between atoms: _477  and  _479
REMARK  193  A    between atoms: _479  and  _480
REMARK  194  A    between atoms: _479  and  _482
REMARK  195  A    between atoms: _482  and  _483
REMARK  196  A    between atoms: _486  and  _488
REMARK  197  A    between atoms: _488  and  _489
REMARK  198  A    between atoms: _488  and  _491
REMARK  199  A    between atoms: _491  and  _492
REMARK  200  A    between atoms: _492  and  _493
REMARK  201  A    between atoms: _496  and  _498
REMARK  202  A    between atoms: _498  and  _499
REMARK  203  A    between atoms: _502  and  _504
REMARK  204  A    between atoms: _504  and  _505
REMARK  205  A    between atoms: _504  and  _507
REMARK  206  A    between atoms: _507  and  _508
REMARK  207  A    between atoms: _510  and  _512
REMARK  208  A    between atoms: _512  and  _513
REMARK  209  A    between atoms: _515  and  _517
REMARK  210  A    between atoms: _517  and  _518
REMARK  211  A    between atoms: _517  and  _520
REMARK  212  A    between atoms: _520  and  _521
REMARK  213  A    between atoms: _524  and  _526
REMARK  214  A    between atoms: _526  and  _527
REMARK  215  A    between atoms: _529  and  _531
REMARK  216  A    between atoms: _531  and  _532
REMARK  217  A    between atoms: _531  and  _534
REMARK  218  A    between atoms: _534  and  _535
REMARK  219  A    between atoms: _540  and  _542
REMARK  220  A    between atoms: _542  and  _543
REMARK  221  A    between atoms: _542  and  _545
REMARK  222  A    between atoms: _545  and  _546
REMARK  223  A    between atoms: _546  and  _547
REMARK  224  A    between atoms: _554  and  _555
REMARK  225  A    between atoms: _555  and  _571
REMARK  226  A    between atoms: _556  and  _558
REMARK  227  A    between atoms: _558  and  _559
REMARK  228  A    between atoms: _559  and  _560
REMARK  229  A    between atoms: _564  and  _566
REMARK  230  A    between atoms: _566  and  _567
REMARK  231  A    between atoms: _566  and  _574
REMARK  232  A    between atoms: _567  and  _568
REMARK  233  A    between atoms: _568  and  _569
REMARK  234  A    between atoms: _569  and  _570
REMARK  235  A    between atoms: _570  and  _571
REMARK  236  A    between atoms: _576  and  _578
REMARK  237  A    between atoms: _578  and  _579
REMARK  238  A    between atoms: _578  and  _581
REMARK  239  A    between atoms: _581  and  _582
REMARK  240  A    between atoms: _585  and  _587
REMARK  241  A    between atoms: _587  and  _588
REMARK  242  A    between atoms: _590  and  _592
REMARK  243  A    between atoms: _592  and  _593
REMARK  244  A    between atoms: _596  and  _598
REMARK  245  A    between atoms: _598  and  _599
REMARK  246  A    between atoms: _598  and  _601
REMARK  247  A    between atoms: _601  and  _602
REMARK  248  A    between atoms: _607  and  _608
REMARK                            x       y       z     vdW  Elec       q    Type
REMARK                         _______ _______ _______ _____ _____    ______ ____
ROOT
ATOM      1  CA  GLU A   1      31.736  20.645  38.936  0.00  0.00    +0.134 C 
ENDROOT
BRANCH   1   2
ATOM      2  N   GLU A   1      33.059  20.183  39.335  0.00  0.00    -0.239 NA
ATOM      3  H   GLU A   1      33.490  19.384  38.827  0.00  0.00    +0.142 HD
ENDBRANCH   1   2
BRANCH   1   4
ATOM      4  C   GLU A   1      30.794  19.488  38.620  0.00  0.00    +0.224 C 
ATOM      5  O   GLU A   1      31.158  18.555  37.893  0.00  0.00    -0.287 OA
ENDBRANCH   1   4
BRANCH   1   6
ATOM      6  CB  GLU A   1      31.828  21.594  37.732  0.00  0.00    +0.037 C 
BRANCH   6   7
ATOM      7  CG  GLU A   1      32.629  22.878  37.997  0.00  0.00    +0.116 C 
BRANCH   7   8
ATOM      8  CD  GLU A   1      32.589  23.851  36.838  0.00  0.00    +0.365 C 
ATOM      9  OE2 GLU A   1      33.498  24.693  36.758  0.00  0.00    -0.246 OA
ATOM     10  OE1 GLU A   1      31.657  23.782  36.005  0.00  0.00    -0.246 OA
ENDBRANCH   7   8
ENDBRANCH   6   7
ENDBRANCH   1   6
TORSDOF 5
REMARK  Name = ../refined-set-2016/3g2n/3g2n_pocket.pdb
REMARK  248 active torsions:
REMARK  status: ('A' for Active; 'I' for Inactive)
REMARK    1  A    between atoms: _1  and  _3
REMARK    2  A    between atoms: _3  and  _4
REMARK    3  A    between atoms: _3  and  _6
REMARK    4  A    between atoms: _6  and  _7
REMARK    5  A    between atoms: _12  and  _13
REMARK    6  A    between atoms: _15  and  _17
REMARK    7  A    between atoms: _17  and  _18
REMARK    8  A    between atoms: _17  and  _20
REMARK    9  A    between atoms: _20  and  _21
REMARK   10  A    between atoms: _21  and  _22
REMARK   11  A    between atoms: _25  and  _27
REMARK   12  A    between atoms: _27  and  _28
REMARK   13  A    between atoms: _27  and  _30
REMARK   14  A    between atoms: _30  and  _31
REMARK   15  A    between atoms: _36  and  _38
REMARK   16  A    between atoms: _38  and  _39
REMARK   17  A    between atoms: _41  and  _43
REMARK   18  A    between atoms: _43  and  _44
REMARK   19  A    between atoms: _46  and  _48
REMARK   20  A    between atoms: _48  and  _49
REMARK   21  A    between atoms: _48  and  _51
REMARK   22  A    between atoms: _51  and  _52
REMARK   23  A    between atoms: _55  and  _57
REMARK   24  A    between atoms: _57  and  _58
REMARK   25  A    between atoms: _60  and  _62
REMARK   26  A    between atoms: _62  and  _63
REMARK   27  A    between atoms: _62  and  _65
REMARK   28  A    between atoms: _65  and  _66
REMARK   29  A    between atoms: _66  and  _67
REMARK   30  A    between atoms: _67  and  _68
REMARK   31  A    between atoms: _77  and  _79
REMARK   32  A    between atoms: _79  and  _80
REMARK   33  A    between atoms: _79  and  _82
REMARK   34  A    between atoms: _82  and  _83
REMARK   35  A    between atoms: _86  and  _88
REMARK   36  A    between atoms: _88  and  _89
REMARK   37  A    between atoms: _92  and  _94
REMARK   38  A    between atoms: _94  and  _95
REMARK   39  A    between atoms: _94  and  _97
REMARK   40  A    between atoms: _97  and  _98
REMARK   41  A    between atoms: _104  and  _106
REMARK   42  A    between atoms: _106  and  _107
REMARK   43  A    between atoms: _106  and  _109
REMARK   44  A    between atoms: _109  and  _110
REMARK   45  A    between atoms: _115  and  _117
REMARK   46  A    between atoms: _117  and  _118
REMARK   47  A    between atoms: _117  and  _120
REMARK   48  A    between atoms: _120  and  _121
REMARK   49  A    between atoms: _124  and  _126
REMARK   50  A    between atoms: _126  and  _127
REMARK   51  A    between atoms: _126  and  _129
REMARK   52  A    between atoms: _129  and  _130
REMARK   53  A    between atoms: _135  and  _137
REMARK   54  A    between atoms: _137  and  _138
REMARK   55  A    between atoms: _137  and  _140
REMARK   56  A    between atoms: _140  and  _141
REMARK   57  A    between atoms: _147  and  _149
REMARK   58  A    between atoms: _149  and  _150
REMARK   59  A    between atoms: _149  and  _152
REMARK   60  A    between atoms: _152  and  _153
REMARK   61  A    between atoms: _159  and  _161
REMARK   62  A    between atoms: _161  and  _162
REMARK   63  A    between atoms: _161  and  _164
REMARK   64  A    between atoms: _164  and  _165
REMARK   65  A    between atoms: _165  and  _166
REMARK   66  A    between atoms: _166  and  _167
REMARK   67  A    between atoms: _176  and  _178
REMARK   68  A    between atoms: _178  and  _179
REMARK   69  A    between atoms: _178  and  _181
REMARK   70  A    between atoms: _181  and  _182
REMARK   71  A    between atoms: _187  and  _189
REMARK   72  A    between atoms: _189  and  _190
REMARK   73  A    between atoms: _189  and  _192
REMARK   74  A    between atoms: _192  and  _193
REMARK   75  A    between atoms: _196  and  _198
REMARK   76  A    between atoms: _198  and  _199
REMARK   77  A    between atoms: _198  and  _201
REMARK   78  A    between atoms: _201  and  _202
REMARK   79  A    between atoms: _205  and  _207
REMARK   80  A    between atoms: _207  and  _208
REMARK   81  A    between atoms: _207  and  _210
REMARK   82  A    between atoms: _210  and  _211
REMARK   83  A    between atoms: _216  and  _218
REMARK   84  A    between atoms: _218  and  _219
REMARK   85  A    between atoms: _218  and  _221
REMARK   86  A    between atoms: _221  and  _222
REMARK   87  A    between atoms: _227  and  _228
REMARK   88  A    between atoms: _230  and  _232
REMARK   89  A    between atoms: _232  and  _233
REMARK   90  A    between atoms: _232  and  _235
REMARK   91  A    between atoms: _235  and  _236
REMARK   92  A    between atoms: _239  and  _241
REMARK   93  A    between atoms: _241  and  _242
REMARK   94  A    between atoms: _241  and  _244
REMARK   95  A    between atoms: _244  and  _245
REMARK   96  A    between atoms: _250  and  _252
REMARK   97  A    between atoms: _252  and  _253
REMARK   98  A    between atoms: _252  and  _255
REMARK   99  A    between atoms: _255  and  _256
REMARK  100  A    between atoms: _261  and  _263
REMARK  101  A    between atoms: _263  and  _264
REMARK  102  A    between atoms: _263  and  _266
REMARK  103  A    between atoms: _266  and  _267
REMARK  104  A    between atoms: _270  and  _272
REMARK  105  A    between atoms: _272  and  _273
REMARK  106  A    between atoms: _272  and  _275
REMARK  107  A    between atoms: _278  and  _280
REMARK  108  A    between atoms: _280  and  _281
REMARK  109  A    between atoms: _280  and  _283
REMARK  110  A    between atoms: _283  and  _284
REMARK  111  A    between atoms: _287  and  _289
REMARK  112  A    between atoms: _289  and  _290
REMARK  113  A    between atoms: _289  and  _292
REMARK  114  A    between atoms: _292  and  _293
REMARK  115  A    between atoms: _293  and  _294
REMARK  116  A    between atoms: _297  and  _299
REMARK  117  A    between atoms: _299  and  _300
REMARK  118  A    between atoms: _303  and  _305
REMARK  119  A    between atoms: _305  and  _306
REMARK  120  A    between atoms: _305  and  _308
REMARK  121  A    between atoms: _308  and  _309
REMARK  122  A    between atoms: _312  and  _314
REMARK  123  A    between atoms: _314  and  _315
REMARK  124  A    between atoms: _314  and  _317
REMARK  125  A    between atoms: _317  and  _318
REMARK  126  A    between atoms: _318  and  _319
REMARK  127  A    between atoms: _322  and  _324
REMARK  128  A    between atoms: _324  and  _325
REMARK  129  A    between atoms: _324  and  _327
REMARK  130  A    between atoms: _327  and  _328
REMARK  131  A    between atoms: _333  and  _335
REMARK  132  A    between atoms: _335  and  _336
REMARK  133  A    between atoms: _338  and  _340
REMARK  134  A    between atoms: _340  and  _341
REMARK  135  A    between atoms: _340  and  _343
REMARK  136  A    between atoms: _346  and  _348
REMARK  137  A    between atoms: _348  and  _349
REMARK  138  A    between atoms: _352  and  _354
REMARK  139  A    between atoms: _354  and  _355
REMARK  140  A    between atoms: _354  and  _357
REMARK  141  A    between atoms: _357  and  _358
REMARK  142  A    between atoms: _363  and  _365
REMARK  143  A    between atoms: _365  and  _366
REMARK  144  A    between atoms: _365  and  _368
REMARK  145  A    between atoms: _368  and  _369
REMARK  146  A    between atoms: _369  and  _370
REMARK  147  A    between atoms: _370  and  _371
REMARK  148  A    between atoms: _371  and  _372
REMARK  149  A    between atoms: _376  and  _378
REMARK  150  A    between atoms: _378  and  _379
REMARK  151  A    between atoms: _378  and  _381
REMARK  152  A    between atoms: _381  and  _382
REMARK  153  A    between atoms: _385  and  _387
REMARK  154  A    between atoms: _387  and  _388
REMARK  155  A    between atoms: _387  and  _390
REMARK  156  A    between atoms: _390  and  _391
REMARK  157  A    between atoms: _396  and  _398
REMARK  158  A    between atoms: _398  and  _399
REMARK  159  A    between atoms: _401  and  _403
REMARK  160  A    between atoms: _403  and  _404
REMARK  161  A    between atoms: _403  and  _406
REMARK  162  A    between atoms: _406  and  _407
REMARK  163  A    between atoms: _407  and  _408
REMARK  164  A    between atoms: _408  and  _409
REMARK  165  A    between atoms: _409  and  _410
REMARK  166  A    between atoms: _414  and  _416
REMARK  167  A    between atoms: _416  and  _417
REMARK  168  A    between atoms: _416  and  _419
REMARK  169  A    between atoms: _419  and  _420
REMARK  170  A    between atoms: _420  and  _421
REMARK  171  A    between atoms: _421  and  _422
REMARK  172  A    between atoms: _431  and  _433
REMARK  173  A    between atoms: _433  and  _434
REMARK  174  A    between atoms: _433  and  _436
REMARK  175  A    between atoms: _436  and  _437
REMARK  176  A    between atoms: _442  and  _444
REMARK  177  A    between atoms: _444  and  _445
REMARK  178  A    between atoms: _444  and  _447
REMARK  179  A    between atoms: _447  and  _448
REMARK  180  A    between atoms: _453  and  _454
REMARK  181  A    between atoms: _456  and  _458
REMARK  182  A    between atoms: _458  and  _459
REMARK  183  A    between atoms: _458  and  _461
REMARK  184  A    between atoms: _461  and  _462
REMARK  185  A    between atoms: _462  and  _463
REMARK  186  A    between atoms: _463  and  _464
REMARK  187  A    between atoms: _464  and  _465
REMARK  188  A    between atoms: _469  and  _471
REMARK  189  A    between atoms: _471  and  _472
REMARK  190  A    between atoms: _471  and  _474
REMARK  191  A    between atoms: _474  and  _475
REMARK  192  A    between atoms: _477  and  _479
REMARK  193  A    between atoms: _479  and  _480
REMARK  194  A    between atoms: _479  and  _482
REMARK  195  A    between atoms: _482  and  _483
REMARK  196  A    between atoms: _486  and  _488
REMARK  197  A    between atoms: _488  and  _489
REMARK  198  A    between atoms: _488  and  _491
REMARK  199  A    between atoms: _491  and  _492
REMARK  200  A    between atoms: _492  and  _493
REMARK  201  A    between atoms: _496  and  _498
REMARK  202  A    between atoms: _498  and  _499
REMARK  203  A    between atoms: _502  and  _504
REMARK  204  A    between atoms: _504  and  _505
REMARK  205  A    between atoms: _504  and  _507
REMARK  206  A    between atoms: _507  and  _508
REMARK  207  A    between atoms: _510  and  _512
REMARK  208  A    between atoms: _512  and  _513
REMARK  209  A    between atoms: _515  and  _517
REMARK  210  A    between atoms: _517  and  _518
REMARK  211  A    between atoms: _517  and  _520
REMARK  212  A    between atoms: _520  and  _521
REMARK  213  A    between atoms: _524  and  _526
REMARK  214  A    between atoms: _526  and  _527
REMARK  215  A    between atoms: _529  and  _531
REMARK  216  A    between atoms: _531  and  _532
REMARK  217  A    between atoms: _531  and  _534
REMARK  218  A    between atoms: _534  and  _535
REMARK  219  A    between atoms: _540  and  _542
REMARK  220  A    between atoms: _542  and  _543
REMARK  221  A    between atoms: _542  and  _545
REMARK  222  A    between atoms: _545  and  _546
REMARK  223  A    between atoms: _546  and  _547
REMARK  224  A    between atoms: _554  and  _555
REMARK  225  A    between atoms: _555  and  _571
REMARK  226  A    between atoms: _556  and  _558
REMARK  227  A    between atoms: _558  and  _559
REMARK  228  A    between atoms: _559  and  _560
REMARK  229  A    between atoms: _564  and  _566
REMARK  230  A    between atoms: _566  and  _567
REMARK  231  A    between atoms: _566  and  _574
REMARK  232  A    between atoms: _567  and  _568
REMARK  233  A    between atoms: _568  and  _569
REMARK  234  A    between atoms: _569  and  _570
REMARK  235  A    between atoms: _570  and  _571
REMARK  236  A    between atoms: _576  and  _578
REMARK  237  A    between atoms: _578  and  _579
REMARK  238  A    between atoms: _578  and  _581
REMARK  239  A    between atoms: _581  and  _582
REMARK  240  A    between atoms: _585  and  _587
REMARK  241  A    between atoms: _587  and  _588
REMARK  242  A    between atoms: _590  and  _592
REMARK  243  A    between atoms: _592  and  _593
REMARK  244  A    between atoms: _596  and  _598
REMARK  245  A    between atoms: _598  and  _599
REMARK  246  A    between atoms: _598  and  _601
REMARK  247  A    between atoms: _601  and  _602
REMARK  248  A    between atoms: _607  and  _608
REMARK                            x       y       z     vdW  Elec       q    Type
REMARK                         _______ _______ _______ _____ _____    ______ ____
ROOT
ATOM      1  C   GLY A   5      28.530  19.732  34.363  0.00  0.00    +0.243 C 
ATOM      2  O   GLY A   5      28.160  18.759  35.029  0.00  0.00    -0.273 OA
ATOM      3  N   ARG A   6      27.881  20.151  33.280  0.00  0.00    -0.297 N 
ATOM      4  H   ARG A   6      28.226  20.985  32.764  0.00  0.00    +0.150 HD
ENDROOT
BRANCH   3   5
ATOM      5  CA  ARG A   6      26.680  19.447  32.804  0.00  0.00    +0.149 C 
BRANCH   5   6
ATOM      6  C   ARG A   6      27.042  18.078  32.239  0.00  0.00    +0.241 C 
ATOM      7  O   ARG A   6      26.288  17.123  32.415  0.00  0.00    -0.273 OA
ATOM      8  N   LEU A   7      28.206  17.983  31.593  0.00  0.00    -0.297 N 
ATOM      9  H   LEU A   7      28.773  18.843  31.449  0.00  0.00    +0.150 HD
BRANCH   8  10
ATOM     10  CA  LEU A   7      28.709  16.712  31.082  0.00  0.00    +0.149 C 
BRANCH  10  11
ATOM     11  C   LEU A   7      28.876  15.704  32.208  0.00  0.00    +0.241 C 
ATOM     12  N   ALA A   8      29.447  16.148  33.330  0.00  0.00    -0.298 N 
ATOM     13  H   ALA A   8      29.797  17.127  33.366  0.00  0.00    +0.150 HD
ATOM     14  O   LEU A   7      28.487  14.548  32.066  0.00  0.00    -0.273 OA
BRANCH  12  15
ATOM     15  CA  ALA A   8      29.594  15.301  34.505  0.00  0.00    +0.137 C 
ATOM     16  CB  ALA A   8      30.283  16.059  35.633  0.00  0.00    +0.030 C 
BRANCH  15  17
ATOM     17  C   ALA A   8      28.234  14.756  34.967  0.00  0.00    +0.227 C 
ATOM     18  O   ALA A   8      28.125  13.592  35.324  0.00  0.00    -0.286 OA
ENDBRANCH  15  17
ENDBRANCH  12  15
ENDBRANCH  10  11
BRANCH  10  19
ATOM     19  CB  LEU A   7      30.040  16.885  30.335  0.00  0.00    +0.029 C 
BRANCH  19  20
ATOM     20  CG  LEU A   7      30.517  15.642  29.568  0.00  0.00    +0.002 C 
ATOM     21  CD2 LEU A   7      32.008  15.710  29.283  0.00  0.00    +0.000 C 
ATOM     22  CD1 LEU A   7      29.718  15.440  28.274  0.00  0.00    +0.000 C 
ENDBRANCH  19  20
ENDBRANCH  10  19
ENDBRANCH   8  10
ENDBRANCH   5   6
BRANCH   5  23
ATOM     23  CB  ARG A   6      25.876  20.288  31.795  0.00  0.00    +0.033 C 
BRANCH  23  24
ATOM     24  CG  ARG A   6      24.563  19.635  31.318  0.00  0.00    +0.045 C 
BRANCH  24  25
ATOM     25  CD  ARG A   6      23.648  19.203  32.487  0.00  0.00    +0.174 C 
BRANCH  25  26
ATOM     26  NE  ARG A   6      23.218  17.804  32.373  0.00  0.00    -0.265 N 
ATOM     27  CZ  ARG A   6      22.396  17.194  33.228  0.00  0.00    +0.342 C 
ATOM     28  NH2 ARG A   6      21.909  17.847  34.278  0.00  0.00    -0.292 N 
ATOM     29 HH21 ARG A   6      21.269  17.364  34.940  0.00  0.00    +0.255 HD
ATOM     30 HH22 ARG A   6      22.168  18.841  34.438  0.00  0.00    +0.255 HD
ATOM     31  NH1 ARG A   6      22.065  15.922  33.039  0.00  0.00    -0.292 N 
ATOM     32 HH11 ARG A   6      21.424  15.447  33.706  0.00  0.00    +0.255 HD
ATOM     33 HH12 ARG A   6      22.447  15.401  32.224  0.00  0.00    +0.255 HD
ATOM     34  HE  ARG A   6      23.579  17.250  31.570  0.00  0.00    +0.259 HD
ENDBRANCH  25  26
ENDBRANCH  24  25
ENDBRANCH  23  24
ENDBRANCH   5  23
ENDBRANCH   3   5
BRANCH   1  35
ATOM     35  CA  GLY A   5      29.762  20.530  34.770  0.00  0.00    +0.176 C 
BRANCH  35  37
ATOM     36  C   LEU A   4      31.186  20.096  32.828  0.00  0.00    +0.241 C 
ATOM     37  N   GLY A   5      30.558  20.963  33.622  0.00  0.00    -0.295 N 
ATOM     38  H   GLY A   5      30.637  21.980  33.419  0.00  0.00    +0.150 HD
ATOM     39  O   LEU A   4      31.193  18.872  33.032  0.00  0.00    -0.273 OA
BRANCH  36  40
ATOM     40  CA  LEU A   4      31.939  20.692  31.630  0.00  0.00    +0.149 C 
BRANCH  40  42
ATOM     41  C   GLY A   3      30.002  21.319  30.277  0.00  0.00    +0.243 C 
ATOM     42  N   LEU A   4      31.121  21.671  30.914  0.00  0.00    -0.297 N 
ATOM     43  H   LEU A   4      31.419  22.667  30.901  0.00  0.00    +0.150 HD
ATOM     44  O   GLY A   3      29.583  20.155  30.250  0.00  0.00    -0.273 OA
BRANCH  41  45
ATOM     45  CA  GLY A   3      29.251  22.424  29.556  0.00  0.00    +0.176 C 
BRANCH  45  48
ATOM     46  C   GLY A   2      28.537  23.823  31.448  0.00  0.00    +0.243 C 
ATOM     47  O   GLY A   2      28.234  22.867  32.155  0.00  0.00    -0.273 OA
ATOM     48  N   GLY A   3      29.110  23.707  30.249  0.00  0.00    -0.295 N 
ATOM     49  H   GLY A   3      29.472  24.565  29.786  0.00  0.00    +0.150 HD
BRANCH  46  50
ATOM     50  CA  GLY A   2      28.290  25.227  31.934  0.00  0.00    +0.176 C 
BRANCH  50  53
ATOM     51  C   ASN A   1      28.670  26.590  33.917  0.00  0.00    +0.239 C 
ATOM     52  O   ASN A   1      27.914  27.480  33.520  0.00  0.00    -0.274 OA
ATOM     53  N   GLY A   2      28.867  25.455  33.255  0.00  0.00    -0.296 N 
ATOM     54  H   GLY A   2      29.448  24.710  33.690  0.00  0.00    +0.150 HD
BRANCH  51  55
ATOM     55  CA  ASN A   1      29.446  26.749  35.220  0.00  0.00    +0.154 C 
BRANCH  55  56
ATOM     56  N   ASN A   1      29.488  25.523  36.016  0.00  0.00    -0.238 NA
ATOM     57  H   ASN A   1      30.231  24.820  35.828  0.00  0.00    +0.142 HD
ENDBRANCH  55  56
BRANCH  55  58
ATOM     58  CB  ASN A   1      30.863  27.231  34.913  0.00  0.00    +0.111 C 
BRANCH  58  59
ATOM     59  CG  ASN A   1      31.443  28.053  36.026  0.00  0.00    +0.221 C 
ATOM     60  ND2 ASN A   1      32.434  27.499  36.726  0.00  0.00    -0.329 N 
ATOM     61 HD21 ASN A   1      32.874  28.023  37.509  0.00  0.00    +0.145 HD
ATOM     62 HD22 ASN A   1      32.767  26.543  36.489  0.00  0.00    +0.145 HD
ATOM     63  OD1 ASN A   1      31.007  29.181  36.261  0.00  0.00    -0.275 OA
ENDBRANCH  58  59
ENDBRANCH  55  58
ENDBRANCH  51  55
ENDBRANCH  50  53
ENDBRANCH  46  50
ENDBRANCH  45  48
ENDBRANCH  41  45
ENDBRANCH  40  42
BRANCH  40  64
ATOM     64  CB  LEU A   4      33.278  21.318  32.070  0.00  0.00    +0.029 C 
BRANCH  64  65
ATOM     65  CG  LEU A   4      34.217  20.509  32.979  0.00  0.00    +0.002 C 
ATOM     66  CD2 LEU A   4      33.797  20.636  34.443  0.00  0.00    +0.000 C 
ATOM     67  CD1 LEU A   4      35.691  20.915  32.825  0.00  0.00    +0.000 C 
ENDBRANCH  64  65
ENDBRANCH  40  64
ENDBRANCH  36  40
ENDBRANCH  35  37
ENDBRANCH   1  35
TORSDOF 26
REMARK  Name = ../refined-set-2016/3g2n/3g2n_pocket.pdb
REMARK  248 active torsions:
REMARK  status: ('A' for Active; 'I' for Inactive)
REMARK    1  A    between atoms: _1  and  _3
REMARK    2  A    between atoms: _3  and  _4
REMARK    3  A    between atoms: _3  and  _6
REMARK    4  A    between atoms: _6  and  _7
REMARK    5  A    between atoms: _12  and  _13
REMARK    6  A    between atoms: _15  and  _17
REMARK    7  A    between atoms: _17  and  _18
REMARK    8  A    between atoms: _17  and  _20
REMARK    9  A    between atoms: _20  and  _21
REMARK   10  A    between atoms: _21  and  _22
REMARK   11  A    between atoms: _25  and  _27
REMARK   12  A    between atoms: _27  and  _28
REMARK   13  A    between atoms: _27  and  _30
REMARK   14  A    between atoms: _30  and  _31
REMARK   15  A    between atoms: _36  and  _38
REMARK   16  A    between atoms: _38  and  _39
REMARK   17  A    between atoms: _41  and  _43
REMARK   18  A    between atoms: _43  and  _44
REMARK   19  A    between atoms: _46  and  _48
REMARK   20  A    between atoms: _48  and  _49
REMARK   21  A    between atoms: _48  and  _51
REMARK   22  A    between atoms: _51  and  _52
REMARK   23  A    between atoms: _55  and  _57
REMARK   24  A    between atoms: _57  and  _58
REMARK   25  A    between atoms: _60  and  _62
REMARK   26  A    between atoms: _62  and  _63
REMARK   27  A    between atoms: _62  and  _65
REMARK   28  A    between atoms: _65  and  _66
REMARK   29  A    between atoms: _66  and  _67
REMARK   30  A    between atoms: _67  and  _68
REMARK   31  A    between atoms: _77  and  _79
REMARK   32  A    between atoms: _79  and  _80
REMARK   33  A    between atoms: _79  and  _82
REMARK   34  A    between atoms: _82  and  _83
REMARK   35  A    between atoms: _86  and  _88
REMARK   36  A    between atoms: _88  and  _89
REMARK   37  A    between atoms: _92  and  _94
REMARK   38  A    between atoms: _94  and  _95
REMARK   39  A    between atoms: _94  and  _97
REMARK   40  A    between atoms: _97  and  _98
REMARK   41  A    between atoms: _104  and  _106
REMARK   42  A    between atoms: _106  and  _107
REMARK   43  A    between atoms: _106  and  _109
REMARK   44  A    between atoms: _109  and  _110
REMARK   45  A    between atoms: _115  and  _117
REMARK   46  A    between atoms: _117  and  _118
REMARK   47  A    between atoms: _117  and  _120
REMARK   48  A    between atoms: _120  and  _121
REMARK   49  A    between atoms: _124  and  _126
REMARK   50  A    between atoms: _126  and  _127
REMARK   51  A    between atoms: _126  and  _129
REMARK   52  A    between atoms: _129  and  _130
REMARK   53  A    between atoms: _135  and  _137
REMARK   54  A    between atoms: _137  and  _138
REMARK   55  A    between atoms: _137  and  _140
REMARK   56  A    between atoms: _140  and  _141
REMARK   57  A    between atoms: _147  and  _149
REMARK   58  A    between atoms: _149  and  _150
REMARK   59  A    between atoms: _149  and  _152
REMARK   60  A    between atoms: _152  and  _153
REMARK   61  A    between atoms: _159  and  _161
REMARK   62  A    between atoms: _161  and  _162
REMARK   63  A    between atoms: _161  and  _164
REMARK   64  A    between atoms: _164  and  _165
REMARK   65  A    between atoms: _165  and  _166
REMARK   66  A    between atoms: _166  and  _167
REMARK   67  A    between atoms: _176  and  _178
REMARK   68  A    between atoms: _178  and  _179
REMARK   69  A    between atoms: _178  and  _181
REMARK   70  A    between atoms: _181  and  _182
REMARK   71  A    between atoms: _187  and  _189
REMARK   72  A    between atoms: _189  and  _190
REMARK   73  A    between atoms: _189  and  _192
REMARK   74  A    between atoms: _192  and  _193
REMARK   75  A    between atoms: _196  and  _198
REMARK   76  A    between atoms: _198  and  _199
REMARK   77  A    between atoms: _198  and  _201
REMARK   78  A    between atoms: _201  and  _202
REMARK   79  A    between atoms: _205  and  _207
REMARK   80  A    between atoms: _207  and  _208
REMARK   81  A    between atoms: _207  and  _210
REMARK   82  A    between atoms: _210  and  _211
REMARK   83  A    between atoms: _216  and  _218
REMARK   84  A    between atoms: _218  and  _219
REMARK   85  A    between atoms: _218  and  _221
REMARK   86  A    between atoms: _221  and  _222
REMARK   87  A    between atoms: _227  and  _228
REMARK   88  A    between atoms: _230  and  _232
REMARK   89  A    between atoms: _232  and  _233
REMARK   90  A    between atoms: _232  and  _235
REMARK   91  A    between atoms: _235  and  _236
REMARK   92  A    between atoms: _239  and  _241
REMARK   93  A    between atoms: _241  and  _242
REMARK   94  A    between atoms: _241  and  _244
REMARK   95  A    between atoms: _244  and  _245
REMARK   96  A    between atoms: _250  and  _252
REMARK   97  A    between atoms: _252  and  _253
REMARK   98  A    between atoms: _252  and  _255
REMARK   99  A    between atoms: _255  and  _256
REMARK  100  A    between atoms: _261  and  _263
REMARK  101  A    between atoms: _263  and  _264
REMARK  102  A    between atoms: _263  and  _266
REMARK  103  A    between atoms: _266  and  _267
REMARK  104  A    between atoms: _270  and  _272
REMARK  105  A    between atoms: _272  and  _273
REMARK  106  A    between atoms: _272  and  _275
REMARK  107  A    between atoms: _278  and  _280
REMARK  108  A    between atoms: _280  and  _281
REMARK  109  A    between atoms: _280  and  _283
REMARK  110  A    between atoms: _283  and  _284
REMARK  111  A    between atoms: _287  and  _289
REMARK  112  A    between atoms: _289  and  _290
REMARK  113  A    between atoms: _289  and  _292
REMARK  114  A    between atoms: _292  and  _293
REMARK  115  A    between atoms: _293  and  _294
REMARK  116  A    between atoms: _297  and  _299
REMARK  117  A    between atoms: _299  and  _300
REMARK  118  A    between atoms: _303  and  _305
REMARK  119  A    between atoms: _305  and  _306
REMARK  120  A    between atoms: _305  and  _308
REMARK  121  A    between atoms: _308  and  _309
REMARK  122  A    between atoms: _312  and  _314
REMARK  123  A    between atoms: _314  and  _315
REMARK  124  A    between atoms: _314  and  _317
REMARK  125  A    between atoms: _317  and  _318
REMARK  126  A    between atoms: _318  and  _319
REMARK  127  A    between atoms: _322  and  _324
REMARK  128  A    between atoms: _324  and  _325
REMARK  129  A    between atoms: _324  and  _327
REMARK  130  A    between atoms: _327  and  _328
REMARK  131  A    between atoms: _333  and  _335
REMARK  132  A    between atoms: _335  and  _336
REMARK  133  A    between atoms: _338  and  _340
REMARK  134  A    between atoms: _340  and  _341
REMARK  135  A    between atoms: _340  and  _343
REMARK  136  A    between atoms: _346  and  _348
REMARK  137  A    between atoms: _348  and  _349
REMARK  138  A    between atoms: _352  and  _354
REMARK  139  A    between atoms: _354  and  _355
REMARK  140  A    between atoms: _354  and  _357
REMARK  141  A    between atoms: _357  and  _358
REMARK  142  A    between atoms: _363  and  _365
REMARK  143  A    between atoms: _365  and  _366
REMARK  144  A    between atoms: _365  and  _368
REMARK  145  A    between atoms: _368  and  _369
REMARK  146  A    between atoms: _369  and  _370
REMARK  147  A    between atoms: _370  and  _371
REMARK  148  A    between atoms: _371  and  _372
REMARK  149  A    between atoms: _376  and  _378
REMARK  150  A    between atoms: _378  and  _379
REMARK  151  A    between atoms: _378  and  _381
REMARK  152  A    between atoms: _381  and  _382
REMARK  153  A    between atoms: _385  and  _387
REMARK  154  A    between atoms: _387  and  _388
REMARK  155  A    between atoms: _387  and  _390
REMARK  156  A    between atoms: _390  and  _391
REMARK  157  A    between atoms: _396  and  _398
REMARK  158  A    between atoms: _398  and  _399
REMARK  159  A    between atoms: _401  and  _403
REMARK  160  A    between atoms: _403  and  _404
REMARK  161  A    between atoms: _403  and  _406
REMARK  162  A    between atoms: _406  and  _407
REMARK  163  A    between atoms: _407  and  _408
REMARK  164  A    between atoms: _408  and  _409
REMARK  165  A    between atoms: _409  and  _410
REMARK  166  A    between atoms: _414  and  _416
REMARK  167  A    between atoms: _416  and  _417
REMARK  168  A    between atoms: _416  and  _419
REMARK  169  A    between atoms: _419  and  _420
REMARK  170  A    between atoms: _420  and  _421
REMARK  171  A    between atoms: _421  and  _422
REMARK  172  A    between atoms: _431  and  _433
REMARK  173  A    between atoms: _433  and  _434
REMARK  174  A    between atoms: _433  and  _436
REMARK  175  A    between atoms: _436  and  _437
REMARK  176  A    between atoms: _442  and  _444
REMARK  177  A    between atoms: _444  and  _445
REMARK  178  A    between atoms: _444  and  _447
REMARK  179  A    between atoms: _447  and  _448
REMARK  180  A    between atoms: _453  and  _454
REMARK  181  A    between atoms: _456  and  _458
REMARK  182  A    between atoms: _458  and  _459
REMARK  183  A    between atoms: _458  and  _461
REMARK  184  A    between atoms: _461  and  _462
REMARK  185  A    between atoms: _462  and  _463
REMARK  186  A    between atoms: _463  and  _464
REMARK  187  A    between atoms: _464  and  _465
REMARK  188  A    between atoms: _469  and  _471
REMARK  189  A    between atoms: _471  and  _472
REMARK  190  A    between atoms: _471  and  _474
REMARK  191  A    between atoms: _474  and  _475
REMARK  192  A    between atoms: _477  and  _479
REMARK  193  A    between atoms: _479  and  _480
REMARK  194  A    between atoms: _479  and  _482
REMARK  195  A    between atoms: _482  and  _483
REMARK  196  A    between atoms: _486  and  _488
REMARK  197  A    between atoms: _488  and  _489
REMARK  198  A    between atoms: _488  and  _491
REMARK  199  A    between atoms: _491  and  _492
REMARK  200  A    between atoms: _492  and  _493
REMARK  201  A    between atoms: _496  and  _498
REMARK  202  A    between atoms: _498  and  _499
REMARK  203  A    between atoms: _502  and  _504
REMARK  204  A    between atoms: _504  and  _505
REMARK  205  A    between atoms: _504  and  _507
REMARK  206  A    between atoms: _507  and  _508
REMARK  207  A    between atoms: _510  and  _512
REMARK  208  A    between atoms: _512  and  _513
REMARK  209  A    between atoms: _515  and  _517
REMARK  210  A    between atoms: _517  and  _518
REMARK  211  A    between atoms: _517  and  _520
REMARK  212  A    between atoms: _520  and  _521
REMARK  213  A    between atoms: _524  and  _526
REMARK  214  A    between atoms: _526  and  _527
REMARK  215  A    between atoms: _529  and  _531
REMARK  216  A    between atoms: _531  and  _532
REMARK  217  A    between atoms: _531  and  _534
REMARK  218  A    between atoms: _534  and  _535
REMARK  219  A    between atoms: _540  and  _542
REMARK  220  A    between atoms: _542  and  _543
REMARK  221  A    between atoms: _542  and  _545
REMARK  222  A    between atoms: _545  and  _546
REMARK  223  A    between atoms: _546  and  _547
REMARK  224  A    between atoms: _554  and  _555
REMARK  225  A    between atoms: _555  and  _571
REMARK  226  A    between atoms: _556  and  _558
REMARK  227  A    between atoms: _558  and  _559
REMARK  228  A    between atoms: _559  and  _560
REMARK  229  A    between atoms: _564  and  _566
REMARK  230  A    between atoms: _566  and  _567
REMARK  231  A    between atoms: _566  and  _574
REMARK  232  A    between atoms: _567  and  _568
REMARK  233  A    between atoms: _568  and  _569
REMARK  234  A    between atoms: _569  and  _570
REMARK  235  A    between atoms: _570  and  _571
REMARK  236  A    between atoms: _576  and  _578
REMARK  237  A    between atoms: _578  and  _579
REMARK  238  A    between atoms: _578  and  _581
REMARK  239  A    between atoms: _581  and  _582
REMARK  240  A    between atoms: _585  and  _587
REMARK  241  A    between atoms: _587  and  _588
REMARK  242  A    between atoms: _590  and  _592
REMARK  243  A    between atoms: _592  and  _593
REMARK  244  A    between atoms: _596  and  _598
REMARK  245  A    between atoms: _598  and  _599
REMARK  246  A    between atoms: _598  and  _601
REMARK  247  A    between atoms: _601  and  _602
REMARK  248  A    between atoms: _607  and  _608
REMARK                            x       y       z     vdW  Elec       q    Type
REMARK                         _______ _______ _______ _____ _____    ______ ____
ROOT
ATOM      1  CB  PHE A   1      29.179  11.424  32.760  0.00  0.00    +0.051 C 
ENDROOT
BRANCH   1   2
ATOM      2  CG  PHE A   1      29.854  11.616  31.430  0.00  0.00    -0.020 A 
ATOM      3  CD2 PHE A   1      31.237  11.730  31.356  0.00  0.00    -0.004 A 
ATOM      4  CE2 PHE A   1      31.876  11.914  30.122  0.00  0.00    -0.000 A 
ATOM      5  CZ  PHE A   1      31.130  11.987  28.962  0.00  0.00    -0.000 A 
ATOM      6  CE1 PHE A   1      29.745  11.883  29.020  0.00  0.00    -0.000 A 
ATOM      7  CD1 PHE A   1      29.114  11.704  30.251  0.00  0.00    -0.004 A 
ENDBRANCH   1   2
BRANCH   1   8
ATOM      8  CA  PHE A   1      27.704  11.028  32.654  0.00  0.00    +0.137 C 
BRANCH   8   9
ATOM      9  N   PHE A   1      26.876  12.208  32.471  0.00  0.00    -0.239 NA
ATOM     10  H   PHE A   1      27.325  13.146  32.503  0.00  0.00    +0.142 HD
ENDBRANCH   8   9
BRANCH   8  11
ATOM     11  C   PHE A   1      27.279  10.180  33.853  0.00  0.00    +0.224 C 
ATOM     12  O   PHE A   1      27.252   8.954  33.759  0.00  0.00    -0.287 OA
ENDBRANCH   8  11
ENDBRANCH   1   8
TORSDOF 4
REMARK  Name = ../refined-set-2016/3g2n/3g2n_pocket.pdb
REMARK  248 active torsions:
REMARK  status: ('A' for Active; 'I' for Inactive)
REMARK    1  A    between atoms: _1  and  _3
REMARK    2  A    between atoms: _3  and  _4
REMARK    3  A    between atoms: _3  and  _6
REMARK    4  A    between atoms: _6  and  _7
REMARK    5  A    between atoms: _12  and  _13
REMARK    6  A    between atoms: _15  and  _17
REMARK    7  A    between atoms: _17  and  _18
REMARK    8  A    between atoms: _17  and  _20
REMARK    9  A    between atoms: _20  and  _21
REMARK   10  A    between atoms: _21  and  _22
REMARK   11  A    between atoms: _25  and  _27
REMARK   12  A    between atoms: _27  and  _28
REMARK   13  A    between atoms: _27  and  _30
REMARK   14  A    between atoms: _30  and  _31
REMARK   15  A    between atoms: _36  and  _38
REMARK   16  A    between atoms: _38  and  _39
REMARK   17  A    between atoms: _41  and  _43
REMARK   18  A    between atoms: _43  and  _44
REMARK   19  A    between atoms: _46  and  _48
REMARK   20  A    between atoms: _48  and  _49
REMARK   21  A    between atoms: _48  and  _51
REMARK   22  A    between atoms: _51  and  _52
REMARK   23  A    between atoms: _55  and  _57
REMARK   24  A    between atoms: _57  and  _58
REMARK   25  A    between atoms: _60  and  _62
REMARK   26  A    between atoms: _62  and  _63
REMARK   27  A    between atoms: _62  and  _65
REMARK   28  A    between atoms: _65  and  _66
REMARK   29  A    between atoms: _66  and  _67
REMARK   30  A    between atoms: _67  and  _68
REMARK   31  A    between atoms: _77  and  _79
REMARK   32  A    between atoms: _79  and  _80
REMARK   33  A    between atoms: _79  and  _82
REMARK   34  A    between atoms: _82  and  _83
REMARK   35  A    between atoms: _86  and  _88
REMARK   36  A    between atoms: _88  and  _89
REMARK   37  A    between atoms: _92  and  _94
REMARK   38  A    between atoms: _94  and  _95
REMARK   39  A    between atoms: _94  and  _97
REMARK   40  A    between atoms: _97  and  _98
REMARK   41  A    between atoms: _104  and  _106
REMARK   42  A    between atoms: _106  and  _107
REMARK   43  A    between atoms: _106  and  _109
REMARK   44  A    between atoms: _109  and  _110
REMARK   45  A    between atoms: _115  and  _117
REMARK   46  A    between atoms: _117  and  _118
REMARK   47  A    between atoms: _117  and  _120
REMARK   48  A    between atoms: _120  and  _121
REMARK   49  A    between atoms: _124  and  _126
REMARK   50  A    between atoms: _126  and  _127
REMARK   51  A    between atoms: _126  and  _129
REMARK   52  A    between atoms: _129  and  _130
REMARK   53  A    between atoms: _135  and  _137
REMARK   54  A    between atoms: _137  and  _138
REMARK   55  A    between atoms: _137  and  _140
REMARK   56  A    between atoms: _140  and  _141
REMARK   57  A    between atoms: _147  and  _149
REMARK   58  A    between atoms: _149  and  _150
REMARK   59  A    between atoms: _149  and  _152
REMARK   60  A    between atoms: _152  and  _153
REMARK   61  A    between atoms: _159  and  _161
REMARK   62  A    between atoms: _161  and  _162
REMARK   63  A    between atoms: _161  and  _164
REMARK   64  A    between atoms: _164  and  _165
REMARK   65  A    between atoms: _165  and  _166
REMARK   66  A    between atoms: _166  and  _167
REMARK   67  A    between atoms: _176  and  _178
REMARK   68  A    between atoms: _178  and  _179
REMARK   69  A    between atoms: _178  and  _181
REMARK   70  A    between atoms: _181  and  _182
REMARK   71  A    between atoms: _187  and  _189
REMARK   72  A    between atoms: _189  and  _190
REMARK   73  A    between atoms: _189  and  _192
REMARK   74  A    between atoms: _192  and  _193
REMARK   75  A    between atoms: _196  and  _198
REMARK   76  A    between atoms: _198  and  _199
REMARK   77  A    between atoms: _198  and  _201
REMARK   78  A    between atoms: _201  and  _202
REMARK   79  A    between atoms: _205  and  _207
REMARK   80  A    between atoms: _207  and  _208
REMARK   81  A    between atoms: _207  and  _210
REMARK   82  A    between atoms: _210  and  _211
REMARK   83  A    between atoms: _216  and  _218
REMARK   84  A    between atoms: _218  and  _219
REMARK   85  A    between atoms: _218  and  _221
REMARK   86  A    between atoms: _221  and  _222
REMARK   87  A    between atoms: _227  and  _228
REMARK   88  A    between atoms: _230  and  _232
REMARK   89  A    between atoms: _232  and  _233
REMARK   90  A    between atoms: _232  and  _235
REMARK   91  A    between atoms: _235  and  _236
REMARK   92  A    between atoms: _239  and  _241
REMARK   93  A    between atoms: _241  and  _242
REMARK   94  A    between atoms: _241  and  _244
REMARK   95  A    between atoms: _244  and  _245
REMARK   96  A    between atoms: _250  and  _252
REMARK   97  A    between atoms: _252  and  _253
REMARK   98  A    between atoms: _252  and  _255
REMARK   99  A    between atoms: _255  and  _256
REMARK  100  A    between atoms: _261  and  _263
REMARK  101  A    between atoms: _263  and  _264
REMARK  102  A    between atoms: _263  and  _266
REMARK  103  A    between atoms: _266  and  _267
REMARK  104  A    between atoms: _270  and  _272
REMARK  105  A    between atoms: _272  and  _273
REMARK  106  A    between atoms: _272  and  _275
REMARK  107  A    between atoms: _278  and  _280
REMARK  108  A    between atoms: _280  and  _281
REMARK  109  A    between atoms: _280  and  _283
REMARK  110  A    between atoms: _283  and  _284
REMARK  111  A    between atoms: _287  and  _289
REMARK  112  A    between atoms: _289  and  _290
REMARK  113  A    between atoms: _289  and  _292
REMARK  114  A    between atoms: _292  and  _293
REMARK  115  A    between atoms: _293  and  _294
REMARK  116  A    between atoms: _297  and  _299
REMARK  117  A    between atoms: _299  and  _300
REMARK  118  A    between atoms: _303  and  _305
REMARK  119  A    between atoms: _305  and  _306
REMARK  120  A    between atoms: _305  and  _308
REMARK  121  A    between atoms: _308  and  _309
REMARK  122  A    between atoms: _312  and  _314
REMARK  123  A    between atoms: _314  and  _315
REMARK  124  A    between atoms: _314  and  _317
REMARK  125  A    between atoms: _317  and  _318
REMARK  126  A    between atoms: _318  and  _319
REMARK  127  A    between atoms: _322  and  _324
REMARK  128  A    between atoms: _324  and  _325
REMARK  129  A    between atoms: _324  and  _327
REMARK  130  A    between atoms: _327  and  _328
REMARK  131  A    between atoms: _333  and  _335
REMARK  132  A    between atoms: _335  and  _336
REMARK  133  A    between atoms: _338  and  _340
REMARK  134  A    between atoms: _340  and  _341
REMARK  135  A    between atoms: _340  and  _343
REMARK  136  A    between atoms: _346  and  _348
REMARK  137  A    between atoms: _348  and  _349
REMARK  138  A    between atoms: _352  and  _354
REMARK  139  A    between atoms: _354  and  _355
REMARK  140  A    between atoms: _354  and  _357
REMARK  141  A    between atoms: _357  and  _358
REMARK  142  A    between atoms: _363  and  _365
REMARK  143  A    between atoms: _365  and  _366
REMARK  144  A    between atoms: _365  and  _368
REMARK  145  A    between atoms: _368  and  _369
REMARK  146  A    between atoms: _369  and  _370
REMARK  147  A    between atoms: _370  and  _371
REMARK  148  A    between atoms: _371  and  _372
REMARK  149  A    between atoms: _376  and  _378
REMARK  150  A    between atoms: _378  and  _379
REMARK  151  A    between atoms: _378  and  _381
REMARK  152  A    between atoms: _381  and  _382
REMARK  153  A    between atoms: _385  and  _387
REMARK  154  A    between atoms: _387  and  _388
REMARK  155  A    between atoms: _387  and  _390
REMARK  156  A    between atoms: _390  and  _391
REMARK  157  A    between atoms: _396  and  _398
REMARK  158  A    between atoms: _398  and  _399
REMARK  159  A    between atoms: _401  and  _403
REMARK  160  A    between atoms: _403  and  _404
REMARK  161  A    between atoms: _403  and  _406
REMARK  162  A    between atoms: _406  and  _407
REMARK  163  A    between atoms: _407  and  _408
REMARK  164  A    between atoms: _408  and  _409
REMARK  165  A    between atoms: _409  and  _410
REMARK  166  A    between atoms: _414  and  _416
REMARK  167  A    between atoms: _416  and  _417
REMARK  168  A    between atoms: _416  and  _419
REMARK  169  A    between atoms: _419  and  _420
REMARK  170  A    between atoms: _420  and  _421
REMARK  171  A    between atoms: _421  and  _422
REMARK  172  A    between atoms: _431  and  _433
REMARK  173  A    between atoms: _433  and  _434
REMARK  174  A    between atoms: _433  and  _436
REMARK  175  A    between atoms: _436  and  _437
REMARK  176  A    between atoms: _442  and  _444
REMARK  177  A    between atoms: _444  and  _445
REMARK  178  A    between atoms: _444  and  _447
REMARK  179  A    between atoms: _447  and  _448
REMARK  180  A    between atoms: _453  and  _454
REMARK  181  A    between atoms: _456  and  _458
REMARK  182  A    between atoms: _458  and  _459
REMARK  183  A    between atoms: _458  and  _461
REMARK  184  A    between atoms: _461  and  _462
REMARK  185  A    between atoms: _462  and  _463
REMARK  186  A    between atoms: _463  and  _464
REMARK  187  A    between atoms: _464  and  _465
REMARK  188  A    between atoms: _469  and  _471
REMARK  189  A    between atoms: _471  and  _472
REMARK  190  A    between atoms: _471  and  _474
REMARK  191  A    between atoms: _474  and  _475
REMARK  192  A    between atoms: _477  and  _479
REMARK  193  A    between atoms: _479  and  _480
REMARK  194  A    between atoms: _479  and  _482
REMARK  195  A    between atoms: _482  and  _483
REMARK  196  A    between atoms: _486  and  _488
REMARK  197  A    between atoms: _488  and  _489
REMARK  198  A    between atoms: _488  and  _491
REMARK  199  A    between atoms: _491  and  _492
REMARK  200  A    between atoms: _492  and  _493
REMARK  201  A    between atoms: _496  and  _498
REMARK  202  A    between atoms: _498  and  _499
REMARK  203  A    between atoms: _502  and  _504
REMARK  204  A    between atoms: _504  and  _505
REMARK  205  A    between atoms: _504  and  _507
REMARK  206  A    between atoms: _507  and  _508
REMARK  207  A    between atoms: _510  and  _512
REMARK  208  A    between atoms: _512  and  _513
REMARK  209  A    between atoms: _515  and  _517
REMARK  210  A    between atoms: _517  and  _518
REMARK  211  A    between atoms: _517  and  _520
REMARK  212  A    between atoms: _520  and  _521
REMARK  213  A    between atoms: _524  and  _526
REMARK  214  A    between atoms: _526  and  _527
REMARK  215  A    between atoms: _529  and  _531
REMARK  216  A    between atoms: _531  and  _532
REMARK  217  A    between atoms: _531  and  _534
REMARK  218  A    between atoms: _534  and  _535
REMARK  219  A    between atoms: _540  and  _542
REMARK  220  A    between atoms: _542  and  _543
REMARK  221  A    between atoms: _542  and  _545
REMARK  222  A    between atoms: _545  and  _546
REMARK  223  A    between atoms: _546  and  _547
REMARK  224  A    between atoms: _554  and  _555
REMARK  225  A    between atoms: _555  and  _571
REMARK  226  A    between atoms: _556  and  _558
REMARK  227  A    between atoms: _558  and  _559
REMARK  228  A    between atoms: _559  and  _560
REMARK  229  A    between atoms: _564  and  _566
REMARK  230  A    between atoms: _566  and  _567
REMARK  231  A    between atoms: _566  and  _574
REMARK  232  A    between atoms: _567  and  _568
REMARK  233  A    between atoms: _568  and  _569
REMARK  234  A    between atoms: _569  and  _570
REMARK  235  A    between atoms: _570  and  _571
REMARK  236  A    between atoms: _576  and  _578
REMARK  237  A    between atoms: _578  and  _579
REMARK  238  A    between atoms: _578  and  _581
REMARK  239  A    between atoms: _581  and  _582
REMARK  240  A    between atoms: _585  and  _587
REMARK  241  A    between atoms: _587  and  _588
REMARK  242  A    between atoms: _590  and  _592
REMARK  243  A    between atoms: _592  and  _593
REMARK  244  A    between atoms: _596  and  _598
REMARK  245  A    between atoms: _598  and  _599
REMARK  246  A    between atoms: _598  and  _601
REMARK  247  A    between atoms: _601  and  _602
REMARK  248  A    between atoms: _607  and  _608
REMARK                            x       y       z     vdW  Elec       q    Type
REMARK                         _______ _______ _______ _____ _____    ______ ____
ROOT
ATOM      1  CA  ASN A   3      37.038  29.142  29.877  0.00  0.00    +0.158 C 
ENDROOT
BRANCH   1   2
ATOM      2  C   ASN A   3      37.999  30.314  30.170  0.00  0.00    +0.241 C 
ATOM      3  N   PHE A   4      38.638  30.254  31.343  0.00  0.00    -0.297 N 
ATOM      4  H   PHE A   4      38.356  29.507  32.009  0.00  0.00    +0.150 HD
ATOM      5  O   ASN A   3      38.141  31.237  29.359  0.00  0.00    -0.273 OA
BRANCH   3   6
ATOM      6  CA  PHE A   4      39.715  31.173  31.760  0.00  0.00    +0.153 C 
BRANCH   6   7
ATOM      7  C   PHE A   4      40.368  30.691  33.070  0.00  0.00    +0.241 C 
ATOM      8  O   PHE A   4      39.710  30.012  33.873  0.00  0.00    -0.273 OA
ATOM      9  N   PHE A   5      41.645  31.040  33.283  0.00  0.00    -0.298 N 
ATOM     10  H   PHE A   5      42.117  31.666  32.600  0.00  0.00    +0.150 HD
BRANCH   9  11
ATOM     11  CA  PHE A   5      42.401  30.563  34.457  0.00  0.00    +0.141 C 
BRANCH  11  12
ATOM     12  C   PHE A   5      42.920  31.657  35.383  0.00  0.00    +0.227 C 
ATOM     13  O   PHE A   5      43.578  32.609  34.951  0.00  0.00    -0.286 OA
ENDBRANCH  11  12
BRANCH  11  14
ATOM     14  CB  PHE A   5      43.561  29.635  34.048  0.00  0.00    +0.054 C 
BRANCH  14  15
ATOM     15  CG  PHE A   5      44.504  29.283  35.187  0.00  0.00    -0.020 A 
ATOM     16  CD2 PHE A   5      44.098  28.439  36.218  0.00  0.00    -0.004 A 
ATOM     17  CE2 PHE A   5      44.968  28.115  37.265  0.00  0.00    -0.000 A 
ATOM     18  CZ  PHE A   5      46.251  28.638  37.288  0.00  0.00    -0.000 A 
ATOM     19  CE1 PHE A   5      46.669  29.486  36.267  0.00  0.00    -0.000 A 
ATOM     20  CD1 PHE A   5      45.796  29.803  35.226  0.00  0.00    -0.004 A 
ENDBRANCH  14  15
ENDBRANCH  11  14
ENDBRANCH   9  11
ENDBRANCH   6   7
BRANCH   6  21
ATOM     21  CB  PHE A   4      39.200  32.605  31.917  0.00  0.00    +0.055 C 
BRANCH  21  22
ATOM     22  CG  PHE A   4      40.280  33.611  32.210  0.00  0.00    -0.020 A 
ATOM     23  CD2 PHE A   4      40.284  34.314  33.412  0.00  0.00    -0.004 A 
ATOM     24  CE2 PHE A   4      41.285  35.251  33.694  0.00  0.00    -0.000 A 
ATOM     25  CZ  PHE A   4      42.292  35.489  32.763  0.00  0.00    -0.000 A 
ATOM     26  CE1 PHE A   4      42.297  34.791  31.554  0.00  0.00    -0.000 A 
ATOM     27  CD1 PHE A   4      41.293  33.860  31.285  0.00  0.00    -0.004 A 
ENDBRANCH  21  22
ENDBRANCH   6  21
ENDBRANCH   3   6
ENDBRANCH   1   2
BRANCH   1  29
ATOM     28  C   ASP A   2      35.088  30.022  31.120  0.00  0.00    +0.241 C 
ATOM     29  N   ASN A   3      35.913  29.020  30.821  0.00  0.00    -0.297 N 
ATOM     30  H   ASN A   3      35.754  28.100  31.279  0.00  0.00    +0.150 HD
ATOM     31  O   ASP A   2      35.178  31.152  30.626  0.00  0.00    -0.273 OA
BRANCH  28  32
ATOM     32  CA  ASP A   2      33.998  29.705  32.140  0.00  0.00    +0.160 C 
BRANCH  32  35
ATOM     33  C   ASN A   1      34.907  30.081  34.354  0.00  0.00    +0.239 C 
ATOM     34  O   ASN A   1      35.277  28.903  34.455  0.00  0.00    -0.274 OA
ATOM     35  N   ASP A   2      34.220  30.535  33.313  0.00  0.00    -0.297 N 
ATOM     36  H   ASP A   2      33.834  31.500  33.337  0.00  0.00    +0.150 HD
BRANCH  33  37
ATOM     37  CA  ASN A   1      35.241  31.103  35.435  0.00  0.00    +0.154 C 
BRANCH  37  38
ATOM     38  N   ASN A   1      34.467  30.990  36.689  0.00  0.00    -0.238 NA
ATOM     39  H   ASN A   1      34.873  30.448  37.478  0.00  0.00    +0.142 HD
ENDBRANCH  37  38
BRANCH  37  40
ATOM     40  CB  ASN A   1      36.742  31.028  35.720  0.00  0.00    +0.111 C 
BRANCH  40  41
ATOM     41  CG  ASN A   1      37.229  32.191  36.543  0.00  0.00    +0.221 C 
ATOM     42  ND2 ASN A   1      38.075  31.903  37.531  0.00  0.00    -0.329 N 
ATOM     43 HD21 ASN A   1      38.448  32.663  38.135  0.00  0.00    +0.145 HD
ATOM     44 HD22 ASN A   1      38.363  30.918  37.699  0.00  0.00    +0.145 HD
ATOM     45  OD1 ASN A   1      36.852  33.342  36.297  0.00  0.00    -0.275 OA
ENDBRANCH  40  41
ENDBRANCH  37  40
ENDBRANCH  33  37
ENDBRANCH  32  35
BRANCH  32  46
ATOM     46  CB  ASP A   2      32.613  29.954  31.542  0.00  0.00    +0.143 C 
BRANCH  46  47
ATOM     47  CG  ASP A   2      32.126  28.785  30.703  0.00  0.00    +0.367 C 
ATOM     48  OD2 ASP A   2      31.780  27.725  31.286  0.00  0.00    -0.246 OA
ATOM     49  OD1 ASP A   2      32.087  28.923  29.457  0.00  0.00    -0.246 OA
ENDBRANCH  46  47
ENDBRANCH  32  46
ENDBRANCH  28  32
ENDBRANCH   1  29
BRANCH   1  50
ATOM     50  CB  ASN A   3      36.555  29.130  28.410  0.00  0.00    +0.114 C 
BRANCH  50  51
ATOM     51  CG  ASN A   3      36.129  27.732  27.928  0.00  0.00    +0.222 C 
ATOM     52  ND2 ASN A   3      34.885  27.351  28.222  0.00  0.00    -0.329 N 
ATOM     53 HD21 ASN A   3      34.260  27.986  28.759  0.00  0.00    +0.145 HD
ATOM     54 HD22 ASN A   3      34.540  26.419  27.915  0.00  0.00    +0.145 HD
ATOM     55  OD1 ASN A   3      36.908  27.015  27.294  0.00  0.00    -0.275 OA
ENDBRANCH  50  51
ENDBRANCH   1  50
TORSDOF 20
REMARK  Name = ../refined-set-2016/3g2n/3g2n_pocket.pdb
REMARK  248 active torsions:
REMARK  status: ('A' for Active; 'I' for Inactive)
REMARK    1  A    between atoms: _1  and  _3
REMARK    2  A    between atoms: _3  and  _4
REMARK    3  A    between atoms: _3  and  _6
REMARK    4  A    between atoms: _6  and  _7
REMARK    5  A    between atoms: _12  and  _13
REMARK    6  A    between atoms: _15  and  _17
REMARK    7  A    between atoms: _17  and  _18
REMARK    8  A    between atoms: _17  and  _20
REMARK    9  A    between atoms: _20  and  _21
REMARK   10  A    between atoms: _21  and  _22
REMARK   11  A    between atoms: _25  and  _27
REMARK   12  A    between atoms: _27  and  _28
REMARK   13  A    between atoms: _27  and  _30
REMARK   14  A    between atoms: _30  and  _31
REMARK   15  A    between atoms: _36  and  _38
REMARK   16  A    between atoms: _38  and  _39
REMARK   17  A    between atoms: _41  and  _43
REMARK   18  A    between atoms: _43  and  _44
REMARK   19  A    between atoms: _46  and  _48
REMARK   20  A    between atoms: _48  and  _49
REMARK   21  A    between atoms: _48  and  _51
REMARK   22  A    between atoms: _51  and  _52
REMARK   23  A    between atoms: _55  and  _57
REMARK   24  A    between atoms: _57  and  _58
REMARK   25  A    between atoms: _60  and  _62
REMARK   26  A    between atoms: _62  and  _63
REMARK   27  A    between atoms: _62  and  _65
REMARK   28  A    between atoms: _65  and  _66
REMARK   29  A    between atoms: _66  and  _67
REMARK   30  A    between atoms: _67  and  _68
REMARK   31  A    between atoms: _77  and  _79
REMARK   32  A    between atoms: _79  and  _80
REMARK   33  A    between atoms: _79  and  _82
REMARK   34  A    between atoms: _82  and  _83
REMARK   35  A    between atoms: _86  and  _88
REMARK   36  A    between atoms: _88  and  _89
REMARK   37  A    between atoms: _92  and  _94
REMARK   38  A    between atoms: _94  and  _95
REMARK   39  A    between atoms: _94  and  _97
REMARK   40  A    between atoms: _97  and  _98
REMARK   41  A    between atoms: _104  and  _106
REMARK   42  A    between atoms: _106  and  _107
REMARK   43  A    between atoms: _106  and  _109
REMARK   44  A    between atoms: _109  and  _110
REMARK   45  A    between atoms: _115  and  _117
REMARK   46  A    between atoms: _117  and  _118
REMARK   47  A    between atoms: _117  and  _120
REMARK   48  A    between atoms: _120  and  _121
REMARK   49  A    between atoms: _124  and  _126
REMARK   50  A    between atoms: _126  and  _127
REMARK   51  A    between atoms: _126  and  _129
REMARK   52  A    between atoms: _129  and  _130
REMARK   53  A    between atoms: _135  and  _137
REMARK   54  A    between atoms: _137  and  _138
REMARK   55  A    between atoms: _137  and  _140
REMARK   56  A    between atoms: _140  and  _141
REMARK   57  A    between atoms: _147  and  _149
REMARK   58  A    between atoms: _149  and  _150
REMARK   59  A    between atoms: _149  and  _152
REMARK   60  A    between atoms: _152  and  _153
REMARK   61  A    between atoms: _159  and  _161
REMARK   62  A    between atoms: _161  and  _162
REMARK   63  A    between atoms: _161  and  _164
REMARK   64  A    between atoms: _164  and  _165
REMARK   65  A    between atoms: _165  and  _166
REMARK   66  A    between atoms: _166  and  _167
REMARK   67  A    between atoms: _176  and  _178
REMARK   68  A    between atoms: _178  and  _179
REMARK   69  A    between atoms: _178  and  _181
REMARK   70  A    between atoms: _181  and  _182
REMARK   71  A    between atoms: _187  and  _189
REMARK   72  A    between atoms: _189  and  _190
REMARK   73  A    between atoms: _189  and  _192
REMARK   74  A    between atoms: _192  and  _193
REMARK   75  A    between atoms: _196  and  _198
REMARK   76  A    between atoms: _198  and  _199
REMARK   77  A    between atoms: _198  and  _201
REMARK   78  A    between atoms: _201  and  _202
REMARK   79  A    between atoms: _205  and  _207
REMARK   80  A    between atoms: _207  and  _208
REMARK   81  A    between atoms: _207  and  _210
REMARK   82  A    between atoms: _210  and  _211
REMARK   83  A    between atoms: _216  and  _218
REMARK   84  A    between atoms: _218  and  _219
REMARK   85  A    between atoms: _218  and  _221
REMARK   86  A    between atoms: _221  and  _222
REMARK   87  A    between atoms: _227  and  _228
REMARK   88  A    between atoms: _230  and  _232
REMARK   89  A    between atoms: _232  and  _233
REMARK   90  A    between atoms: _232  and  _235
REMARK   91  A    between atoms: _235  and  _236
REMARK   92  A    between atoms: _239  and  _241
REMARK   93  A    between atoms: _241  and  _242
REMARK   94  A    between atoms: _241  and  _244
REMARK   95  A    between atoms: _244  and  _245
REMARK   96  A    between atoms: _250  and  _252
REMARK   97  A    between atoms: _252  and  _253
REMARK   98  A    between atoms: _252  and  _255
REMARK   99  A    between atoms: _255  and  _256
REMARK  100  A    between atoms: _261  and  _263
REMARK  101  A    between atoms: _263  and  _264
REMARK  102  A    between atoms: _263  and  _266
REMARK  103  A    between atoms: _266  and  _267
REMARK  104  A    between atoms: _270  and  _272
REMARK  105  A    between atoms: _272  and  _273
REMARK  106  A    between atoms: _272  and  _275
REMARK  107  A    between atoms: _278  and  _280
REMARK  108  A    between atoms: _280  and  _281
REMARK  109  A    between atoms: _280  and  _283
REMARK  110  A    between atoms: _283  and  _284
REMARK  111  A    between atoms: _287  and  _289
REMARK  112  A    between atoms: _289  and  _290
REMARK  113  A    between atoms: _289  and  _292
REMARK  114  A    between atoms: _292  and  _293
REMARK  115  A    between atoms: _293  and  _294
REMARK  116  A    between atoms: _297  and  _299
REMARK  117  A    between atoms: _299  and  _300
REMARK  118  A    between atoms: _303  and  _305
REMARK  119  A    between atoms: _305  and  _306
REMARK  120  A    between atoms: _305  and  _308
REMARK  121  A    between atoms: _308  and  _309
REMARK  122  A    between atoms: _312  and  _314
REMARK  123  A    between atoms: _314  and  _315
REMARK  124  A    between atoms: _314  and  _317
REMARK  125  A    between atoms: _317  and  _318
REMARK  126  A    between atoms: _318  and  _319
REMARK  127  A    between atoms: _322  and  _324
REMARK  128  A    between atoms: _324  and  _325
REMARK  129  A    between atoms: _324  and  _327
REMARK  130  A    between atoms: _327  and  _328
REMARK  131  A    between atoms: _333  and  _335
REMARK  132  A    between atoms: _335  and  _336
REMARK  133  A    between atoms: _338  and  _340
REMARK  134  A    between atoms: _340  and  _341
REMARK  135  A    between atoms: _340  and  _343
REMARK  136  A    between atoms: _346  and  _348
REMARK  137  A    between atoms: _348  and  _349
REMARK  138  A    between atoms: _352  and  _354
REMARK  139  A    between atoms: _354  and  _355
REMARK  140  A    between atoms: _354  and  _357
REMARK  141  A    between atoms: _357  and  _358
REMARK  142  A    between atoms: _363  and  _365
REMARK  143  A    between atoms: _365  and  _366
REMARK  144  A    between atoms: _365  and  _368
REMARK  145  A    between atoms: _368  and  _369
REMARK  146  A    between atoms: _369  and  _370
REMARK  147  A    between atoms: _370  and  _371
REMARK  148  A    between atoms: _371  and  _372
REMARK  149  A    between atoms: _376  and  _378
REMARK  150  A    between atoms: _378  and  _379
REMARK  151  A    between atoms: _378  and  _381
REMARK  152  A    between atoms: _381  and  _382
REMARK  153  A    between atoms: _385  and  _387
REMARK  154  A    between atoms: _387  and  _388
REMARK  155  A    between atoms: _387  and  _390
REMARK  156  A    between atoms: _390  and  _391
REMARK  157  A    between atoms: _396  and  _398
REMARK  158  A    between atoms: _398  and  _399
REMARK  159  A    between atoms: _401  and  _403
REMARK  160  A    between atoms: _403  and  _404
REMARK  161  A    between atoms: _403  and  _406
REMARK  162  A    between atoms: _406  and  _407
REMARK  163  A    between atoms: _407  and  _408
REMARK  164  A    between atoms: _408  and  _409
REMARK  165  A    between atoms: _409  and  _410
REMARK  166  A    between atoms: _414  and  _416
REMARK  167  A    between atoms: _416  and  _417
REMARK  168  A    between atoms: _416  and  _419
REMARK  169  A    between atoms: _419  and  _420
REMARK  170  A    between atoms: _420  and  _421
REMARK  171  A    between atoms: _421  and  _422
REMARK  172  A    between atoms: _431  and  _433
REMARK  173  A    between atoms: _433  and  _434
REMARK  174  A    between atoms: _433  and  _436
REMARK  175  A    between atoms: _436  and  _437
REMARK  176  A    between atoms: _442  and  _444
REMARK  177  A    between atoms: _444  and  _445
REMARK  178  A    between atoms: _444  and  _447
REMARK  179  A    between atoms: _447  and  _448
REMARK  180  A    between atoms: _453  and  _454
REMARK  181  A    between atoms: _456  and  _458
REMARK  182  A    between atoms: _458  and  _459
REMARK  183  A    between atoms: _458  and  _461
REMARK  184  A    between atoms: _461  and  _462
REMARK  185  A    between atoms: _462  and  _463
REMARK  186  A    between atoms: _463  and  _464
REMARK  187  A    between atoms: _464  and  _465
REMARK  188  A    between atoms: _469  and  _471
REMARK  189  A    between atoms: _471  and  _472
REMARK  190  A    between atoms: _471  and  _474
REMARK  191  A    between atoms: _474  and  _475
REMARK  192  A    between atoms: _477  and  _479
REMARK  193  A    between atoms: _479  and  _480
REMARK  194  A    between atoms: _479  and  _482
REMARK  195  A    between atoms: _482  and  _483
REMARK  196  A    between atoms: _486  and  _488
REMARK  197  A    between atoms: _488  and  _489
REMARK  198  A    between atoms: _488  and  _491
REMARK  199  A    between atoms: _491  and  _492
REMARK  200  A    between atoms: _492  and  _493
REMARK  201  A    between atoms: _496  and  _498
REMARK  202  A    between atoms: _498  and  _499
REMARK  203  A    between atoms: _502  and  _504
REMARK  204  A    between atoms: _504  and  _505
REMARK  205  A    between atoms: _504  and  _507
REMARK  206  A    between atoms: _507  and  _508
REMARK  207  A    between atoms: _510  and  _512
REMARK  208  A    between atoms: _512  and  _513
REMARK  209  A    between atoms: _515  and  _517
REMARK  210  A    between atoms: _517  and  _518
REMARK  211  A    between atoms: _517  and  _520
REMARK  212  A    between atoms: _520  and  _521
REMARK  213  A    between atoms: _524  and  _526
REMARK  214  A    between atoms: _526  and  _527
REMARK  215  A    between atoms: _529  and  _531
REMARK  216  A    between atoms: _531  and  _532
REMARK  217  A    between atoms: _531  and  _534
REMARK  218  A    between atoms: _534  and  _535
REMARK  219  A    between atoms: _540  and  _542
REMARK  220  A    between atoms: _542  and  _543
REMARK  221  A    between atoms: _542  and  _545
REMARK  222  A    between atoms: _545  and  _546
REMARK  223  A    between atoms: _546  and  _547
REMARK  224  A    between atoms: _554  and  _555
REMARK  225  A    between atoms: _555  and  _571
REMARK  226  A    between atoms: _556  and  _558
REMARK  227  A    between atoms: _558  and  _559
REMARK  228  A    between atoms: _559  and  _560
REMARK  229  A    between atoms: _564  and  _566
REMARK  230  A    between atoms: _566  and  _567
REMARK  231  A    between atoms: _566  and  _574
REMARK  232  A    between atoms: _567  and  _568
REMARK  233  A    between atoms: _568  and  _569
REMARK  234  A    between atoms: _569  and  _570
REMARK  235  A    between atoms: _570  and  _571
REMARK  236  A    between atoms: _576  and  _578
REMARK  237  A    between atoms: _578  and  _579
REMARK  238  A    between atoms: _578  and  _581
REMARK  239  A    between atoms: _581  and  _582
REMARK  240  A    between atoms: _585  and  _587
REMARK  241  A    between atoms: _587  and  _588
REMARK  242  A    between atoms: _590  and  _592
REMARK  243  A    between atoms: _592  and  _593
REMARK  244  A    between atoms: _596  and  _598
REMARK  245  A    between atoms: _598  and  _599
REMARK  246  A    between atoms: _598  and  _601
REMARK  247  A    between atoms: _601  and  _602
REMARK  248  A    between atoms: _607  and  _608
REMARK                            x       y       z     vdW  Elec       q    Type
REMARK                         _______ _______ _______ _____ _____    ______ ____
ROOT
ATOM      1  NE  ARG A   1      39.577  25.911  40.151  0.00  0.00    -0.265 N 
ATOM      2  CZ  ARG A   1      38.443  25.461  39.622  0.00  0.00    +0.342 C 
ATOM      3  NH2 ARG A   1      37.283  25.598  40.261  0.00  0.00    -0.292 N 
ATOM      4 HH21 ARG A   1      37.253  26.064  41.190  0.00  0.00    +0.255 HD
ATOM      5 HH22 ARG A   1      36.407  25.239  39.831  0.00  0.00    +0.255 HD
ATOM      6  NH1 ARG A   1      38.474  24.870  38.437  0.00  0.00    -0.292 N 
ATOM      7 HH11 ARG A   1      37.595  24.513  38.011  0.00  0.00    +0.255 HD
ATOM      8 HH12 ARG A   1      39.377  24.763  37.933  0.00  0.00    +0.255 HD
ATOM      9  HE  ARG A   1      40.449  25.767  39.603  0.00  0.00    +0.259 HD
ENDROOT
BRANCH   1  10
ATOM     10  CD  ARG A   1      39.699  26.591  41.438  0.00  0.00    +0.174 C 
BRANCH  10  11
ATOM     11  CG  ARG A   1      41.056  27.295  41.539  0.00  0.00    +0.045 C 
BRANCH  11  12
ATOM     12  CB  ARG A   1      41.162  28.245  42.725  0.00  0.00    +0.029 C 
BRANCH  12  13
ATOM     13  CA  ARG A   1      41.083  27.591  44.108  0.00  0.00    +0.133 C 
BRANCH  13  14
ATOM     14  N   ARG A   1      41.376  28.573  45.157  0.00  0.00    -0.239 NA
ATOM     15  H   ARG A   1      41.706  29.521  44.883  0.00  0.00    +0.142 HD
ENDBRANCH  13  14
BRANCH  13  16
ATOM     16  C   ARG A   1      42.000  26.369  44.187  0.00  0.00    +0.224 C 
ATOM     17  O   ARG A   1      41.546  25.235  44.047  0.00  0.00    -0.287 OA
ENDBRANCH  13  16
ENDBRANCH  12  13
ENDBRANCH  11  12
ENDBRANCH  10  11
ENDBRANCH   1  10
TORSDOF 6
REMARK  Name = ../refined-set-2016/3g2n/3g2n_pocket.pdb
REMARK  248 active torsions:
REMARK  status: ('A' for Active; 'I' for Inactive)
REMARK    1  A    between atoms: _1  and  _3
REMARK    2  A    between atoms: _3  and  _4
REMARK    3  A    between atoms: _3  and  _6
REMARK    4  A    between atoms: _6  and  _7
REMARK    5  A    between atoms: _12  and  _13
REMARK    6  A    between atoms: _15  and  _17
REMARK    7  A    between atoms: _17  and  _18
REMARK    8  A    between atoms: _17  and  _20
REMARK    9  A    between atoms: _20  and  _21
REMARK   10  A    between atoms: _21  and  _22
REMARK   11  A    between atoms: _25  and  _27
REMARK   12  A    between atoms: _27  and  _28
REMARK   13  A    between atoms: _27  and  _30
REMARK   14  A    between atoms: _30  and  _31
REMARK   15  A    between atoms: _36  and  _38
REMARK   16  A    between atoms: _38  and  _39
REMARK   17  A    between atoms: _41  and  _43
REMARK   18  A    between atoms: _43  and  _44
REMARK   19  A    between atoms: _46  and  _48
REMARK   20  A    between atoms: _48  and  _49
REMARK   21  A    between atoms: _48  and  _51
REMARK   22  A    between atoms: _51  and  _52
REMARK   23  A    between atoms: _55  and  _57
REMARK   24  A    between atoms: _57  and  _58
REMARK   25  A    between atoms: _60  and  _62
REMARK   26  A    between atoms: _62  and  _63
REMARK   27  A    between atoms: _62  and  _65
REMARK   28  A    between atoms: _65  and  _66
REMARK   29  A    between atoms: _66  and  _67
REMARK   30  A    between atoms: _67  and  _68
REMARK   31  A    between atoms: _77  and  _79
REMARK   32  A    between atoms: _79  and  _80
REMARK   33  A    between atoms: _79  and  _82
REMARK   34  A    between atoms: _82  and  _83
REMARK   35  A    between atoms: _86  and  _88
REMARK   36  A    between atoms: _88  and  _89
REMARK   37  A    between atoms: _92  and  _94
REMARK   38  A    between atoms: _94  and  _95
REMARK   39  A    between atoms: _94  and  _97
REMARK   40  A    between atoms: _97  and  _98
REMARK   41  A    between atoms: _104  and  _106
REMARK   42  A    between atoms: _106  and  _107
REMARK   43  A    between atoms: _106  and  _109
REMARK   44  A    between atoms: _109  and  _110
REMARK   45  A    between atoms: _115  and  _117
REMARK   46  A    between atoms: _117  and  _118
REMARK   47  A    between atoms: _117  and  _120
REMARK   48  A    between atoms: _120  and  _121
REMARK   49  A    between atoms: _124  and  _126
REMARK   50  A    between atoms: _126  and  _127
REMARK   51  A    between atoms: _126  and  _129
REMARK   52  A    between atoms: _129  and  _130
REMARK   53  A    between atoms: _135  and  _137
REMARK   54  A    between atoms: _137  and  _138
REMARK   55  A    between atoms: _137  and  _140
REMARK   56  A    between atoms: _140  and  _141
REMARK   57  A    between atoms: _147  and  _149
REMARK   58  A    between atoms: _149  and  _150
REMARK   59  A    between atoms: _149  and  _152
REMARK   60  A    between atoms: _152  and  _153
REMARK   61  A    between atoms: _159  and  _161
REMARK   62  A    between atoms: _161  and  _162
REMARK   63  A    between atoms: _161  and  _164
REMARK   64  A    between atoms: _164  and  _165
REMARK   65  A    between atoms: _165  and  _166
REMARK   66  A    between atoms: _166  and  _167
REMARK   67  A    between atoms: _176  and  _178
REMARK   68  A    between atoms: _178  and  _179
REMARK   69  A    between atoms: _178  and  _181
REMARK   70  A    between atoms: _181  and  _182
REMARK   71  A    between atoms: _187  and  _189
REMARK   72  A    between atoms: _189  and  _190
REMARK   73  A    between atoms: _189  and  _192
REMARK   74  A    between atoms: _192  and  _193
REMARK   75  A    between atoms: _196  and  _198
REMARK   76  A    between atoms: _198  and  _199
REMARK   77  A    between atoms: _198  and  _201
REMARK   78  A    between atoms: _201  and  _202
REMARK   79  A    between atoms: _205  and  _207
REMARK   80  A    between atoms: _207  and  _208
REMARK   81  A    between atoms: _207  and  _210
REMARK   82  A    between atoms: _210  and  _211
REMARK   83  A    between atoms: _216  and  _218
REMARK   84  A    between atoms: _218  and  _219
REMARK   85  A    between atoms: _218  and  _221
REMARK   86  A    between atoms: _221  and  _222
REMARK   87  A    between atoms: _227  and  _228
REMARK   88  A    between atoms: _230  and  _232
REMARK   89  A    between atoms: _232  and  _233
REMARK   90  A    between atoms: _232  and  _235
REMARK   91  A    between atoms: _235  and  _236
REMARK   92  A    between atoms: _239  and  _241
REMARK   93  A    between atoms: _241  and  _242
REMARK   94  A    between atoms: _241  and  _244
REMARK   95  A    between atoms: _244  and  _245
REMARK   96  A    between atoms: _250  and  _252
REMARK   97  A    between atoms: _252  and  _253
REMARK   98  A    between atoms: _252  and  _255
REMARK   99  A    between atoms: _255  and  _256
REMARK  100  A    between atoms: _261  and  _263
REMARK  101  A    between atoms: _263  and  _264
REMARK  102  A    between atoms: _263  and  _266
REMARK  103  A    between atoms: _266  and  _267
REMARK  104  A    between atoms: _270  and  _272
REMARK  105  A    between atoms: _272  and  _273
REMARK  106  A    between atoms: _272  and  _275
REMARK  107  A    between atoms: _278  and  _280
REMARK  108  A    between atoms: _280  and  _281
REMARK  109  A    between atoms: _280  and  _283
REMARK  110  A    between atoms: _283  and  _284
REMARK  111  A    between atoms: _287  and  _289
REMARK  112  A    between atoms: _289  and  _290
REMARK  113  A    between atoms: _289  and  _292
REMARK  114  A    between atoms: _292  and  _293
REMARK  115  A    between atoms: _293  and  _294
REMARK  116  A    between atoms: _297  and  _299
REMARK  117  A    between atoms: _299  and  _300
REMARK  118  A    between atoms: _303  and  _305
REMARK  119  A    between atoms: _305  and  _306
REMARK  120  A    between atoms: _305  and  _308
REMARK  121  A    between atoms: _308  and  _309
REMARK  122  A    between atoms: _312  and  _314
REMARK  123  A    between atoms: _314  and  _315
REMARK  124  A    between atoms: _314  and  _317
REMARK  125  A    between atoms: _317  and  _318
REMARK  126  A    between atoms: _318  and  _319
REMARK  127  A    between atoms: _322  and  _324
REMARK  128  A    between atoms: _324  and  _325
REMARK  129  A    between atoms: _324  and  _327
REMARK  130  A    between atoms: _327  and  _328
REMARK  131  A    between atoms: _333  and  _335
REMARK  132  A    between atoms: _335  and  _336
REMARK  133  A    between atoms: _338  and  _340
REMARK  134  A    between atoms: _340  and  _341
REMARK  135  A    between atoms: _340  and  _343
REMARK  136  A    between atoms: _346  and  _348
REMARK  137  A    between atoms: _348  and  _349
REMARK  138  A    between atoms: _352  and  _354
REMARK  139  A    between atoms: _354  and  _355
REMARK  140  A    between atoms: _354  and  _357
REMARK  141  A    between atoms: _357  and  _358
REMARK  142  A    between atoms: _363  and  _365
REMARK  143  A    between atoms: _365  and  _366
REMARK  144  A    between atoms: _365  and  _368
REMARK  145  A    between atoms: _368  and  _369
REMARK  146  A    between atoms: _369  and  _370
REMARK  147  A    between atoms: _370  and  _371
REMARK  148  A    between atoms: _371  and  _372
REMARK  149  A    between atoms: _376  and  _378
REMARK  150  A    between atoms: _378  and  _379
REMARK  151  A    between atoms: _378  and  _381
REMARK  152  A    between atoms: _381  and  _382
REMARK  153  A    between atoms: _385  and  _387
REMARK  154  A    between atoms: _387  and  _388
REMARK  155  A    between atoms: _387  and  _390
REMARK  156  A    between atoms: _390  and  _391
REMARK  157  A    between atoms: _396  and  _398
REMARK  158  A    between atoms: _398  and  _399
REMARK  159  A    between atoms: _401  and  _403
REMARK  160  A    between atoms: _403  and  _404
REMARK  161  A    between atoms: _403  and  _406
REMARK  162  A    between atoms: _406  and  _407
REMARK  163  A    between atoms: _407  and  _408
REMARK  164  A    between atoms: _408  and  _409
REMARK  165  A    between atoms: _409  and  _410
REMARK  166  A    between atoms: _414  and  _416
REMARK  167  A    between atoms: _416  and  _417
REMARK  168  A    between atoms: _416  and  _419
REMARK  169  A    between atoms: _419  and  _420
REMARK  170  A    between atoms: _420  and  _421
REMARK  171  A    between atoms: _421  and  _422
REMARK  172  A    between atoms: _431  and  _433
REMARK  173  A    between atoms: _433  and  _434
REMARK  174  A    between atoms: _433  and  _436
REMARK  175  A    between atoms: _436  and  _437
REMARK  176  A    between atoms: _442  and  _444
REMARK  177  A    between atoms: _444  and  _445
REMARK  178  A    between atoms: _444  and  _447
REMARK  179  A    between atoms: _447  and  _448
REMARK  180  A    between atoms: _453  and  _454
REMARK  181  A    between atoms: _456  and  _458
REMARK  182  A    between atoms: _458  and  _459
REMARK  183  A    between atoms: _458  and  _461
REMARK  184  A    between atoms: _461  and  _462
REMARK  185  A    between atoms: _462  and  _463
REMARK  186  A    between atoms: _463  and  _464
REMARK  187  A    between atoms: _464  and  _465
REMARK  188  A    between atoms: _469  and  _471
REMARK  189  A    between atoms: _471  and  _472
REMARK  190  A    between atoms: _471  and  _474
REMARK  191  A    between atoms: _474  and  _475
REMARK  192  A    between atoms: _477  and  _479
REMARK  193  A    between atoms: _479  and  _480
REMARK  194  A    between atoms: _479  and  _482
REMARK  195  A    between atoms: _482  and  _483
REMARK  196  A    between atoms: _486  and  _488
REMARK  197  A    between atoms: _488  and  _489
REMARK  198  A    between atoms: _488  and  _491
REMARK  199  A    between atoms: _491  and  _492
REMARK  200  A    between atoms: _492  and  _493
REMARK  201  A    between atoms: _496  and  _498
REMARK  202  A    between atoms: _498  and  _499
REMARK  203  A    between atoms: _502  and  _504
REMARK  204  A    between atoms: _504  and  _505
REMARK  205  A    between atoms: _504  and  _507
REMARK  206  A    between atoms: _507  and  _508
REMARK  207  A    between atoms: _510  and  _512
REMARK  208  A    between atoms: _512  and  _513
REMARK  209  A    between atoms: _515  and  _517
REMARK  210  A    between atoms: _517  and  _518
REMARK  211  A    between atoms: _517  and  _520
REMARK  212  A    between atoms: _520  and  _521
REMARK  213  A    between atoms: _524  and  _526
REMARK  214  A    between atoms: _526  and  _527
REMARK  215  A    between atoms: _529  and  _531
REMARK  216  A    between atoms: _531  and  _532
REMARK  217  A    between atoms: _531  and  _534
REMARK  218  A    between atoms: _534  and  _535
REMARK  219  A    between atoms: _540  and  _542
REMARK  220  A    between atoms: _542  and  _543
REMARK  221  A    between atoms: _542  and  _545
REMARK  222  A    between atoms: _545  and  _546
REMARK  223  A    between atoms: _546  and  _547
REMARK  224  A    between atoms: _554  and  _555
REMARK  225  A    between atoms: _555  and  _571
REMARK  226  A    between atoms: _556  and  _558
REMARK  227  A    between atoms: _558  and  _559
REMARK  228  A    between atoms: _559  and  _560
REMARK  229  A    between atoms: _564  and  _566
REMARK  230  A    between atoms: _566  and  _567
REMARK  231  A    between atoms: _566  and  _574
REMARK  232  A    between atoms: _567  and  _568
REMARK  233  A    between atoms: _568  and  _569
REMARK  234  A    between atoms: _569  and  _570
REMARK  235  A    between atoms: _570  and  _571
REMARK  236  A    between atoms: _576  and  _578
REMARK  237  A    between atoms: _578  and  _579
REMARK  238  A    between atoms: _578  and  _581
REMARK  239  A    between atoms: _581  and  _582
REMARK  240  A    between atoms: _585  and  _587
REMARK  241  A    between atoms: _587  and  _588
REMARK  242  A    between atoms: _590  and  _592
REMARK  243  A    between atoms: _592  and  _593
REMARK  244  A    between atoms: _596  and  _598
REMARK  245  A    between atoms: _598  and  _599
REMARK  246  A    between atoms: _598  and  _601
REMARK  247  A    between atoms: _601  and  _602
REMARK  248  A    between atoms: _607  and  _608
REMARK                            x       y       z     vdW  Elec       q    Type
REMARK                         _______ _______ _______ _____ _____    ______ ____
ROOT
ATOM      1  C   ASP A   2      41.320  18.210  33.904  0.00  0.00    +0.241 C 
ATOM      2  O   ASP A   2      41.487  17.179  34.560  0.00  0.00    -0.273 OA
ATOM      3  N   THR A   3      42.087  19.284  34.056  0.00  0.00    -0.295 N 
ATOM      4  H   THR A   3      41.865  20.151  33.527  0.00  0.00    +0.150 HD
ENDROOT
BRANCH   1   5
ATOM      5  CA  ASP A   2      40.195  18.271  32.863  0.00  0.00    +0.160 C 
BRANCH   5   8
ATOM      6  C   ASN A   1      38.455  17.182  34.247  0.00  0.00    +0.239 C 
ATOM      7  O   ASN A   1      38.364  18.110  35.063  0.00  0.00    -0.274 OA
ATOM      8  N   ASP A   2      39.211  17.228  33.148  0.00  0.00    -0.297 N 
ATOM      9  H   ASP A   2      39.092  16.470  32.446  0.00  0.00    +0.150 HD
BRANCH   6  10
ATOM     10  CA  ASN A   1      37.680  15.873  34.442  0.00  0.00    +0.154 C 
BRANCH  10  11
ATOM     11  N   ASN A   1      38.482  14.976  35.269  0.00  0.00    -0.238 NA
ATOM     12  H   ASN A   1      38.290  14.923  36.290  0.00  0.00    +0.142 HD
ENDBRANCH  10  11
BRANCH  10  13
ATOM     13  CB  ASN A   1      36.301  16.112  35.089  0.00  0.00    +0.111 C 
BRANCH  13  14
ATOM     14  CG  ASN A   1      35.237  16.558  34.093  0.00  0.00    +0.221 C 
ATOM     15  ND2 ASN A   1      34.210  17.236  34.596  0.00  0.00    -0.329 N 
ATOM     16 HD21 ASN A   1      34.174  17.446  35.614  0.00  0.00    +0.145 HD
ATOM     17 HD22 ASN A   1      33.442  17.556  33.972  0.00  0.00    +0.145 HD
ATOM     18  OD1 ASN A   1      35.324  16.285  32.894  0.00  0.00    -0.275 OA
ENDBRANCH  13  14
ENDBRANCH  10  13
ENDBRANCH   6  10
ENDBRANCH   5   8
BRANCH   5  19
ATOM     19  CB  ASP A   2      39.559  19.670  32.742  0.00  0.00    +0.143 C 
BRANCH  19  20
ATOM     20  CG  ASP A   2      40.318  20.557  31.772  0.00  0.00    +0.367 C 
ATOM     21  OD2 ASP A   2      41.150  21.353  32.247  0.00  0.00    -0.246 OA
ATOM     22  OD1 ASP A   2      40.121  20.433  30.540  0.00  0.00    -0.246 OA
ENDBRANCH  19  20
ENDBRANCH   5  19
ENDBRANCH   1   5
BRANCH   3  23
ATOM     23  CA  THR A   3      43.249  19.265  34.964  0.00  0.00    +0.176 C 
BRANCH  23  24
ATOM     24  C   THR A   3      42.896  19.678  36.390  0.00  0.00    +0.243 C 
ATOM     25  O   THR A   3      43.756  19.670  37.276  0.00  0.00    -0.273 OA
ATOM     26  N   HIS A   4      41.634  20.035  36.623  0.00  0.00    -0.298 N 
ATOM     27  H   HIS A   4      40.929  19.963  35.862  0.00  0.00    +0.150 HD
BRANCH  26  28
ATOM     28  CA  HIS A   4      41.233  20.527  37.939  0.00  0.00    +0.143 C 
BRANCH  28  29
ATOM     29  C   HIS A   4      41.581  19.570  39.085  0.00  0.00    +0.227 C 
ATOM     30  O   HIS A   4      42.044  20.023  40.127  0.00  0.00    -0.286 OA
ENDBRANCH  28  29
BRANCH  28  31
ATOM     31  CB  HIS A   4      39.761  20.967  37.974  0.00  0.00    +0.075 C 
BRANCH  31  32
ATOM     32  CG  HIS A   4      39.384  21.893  36.858  0.00  0.00    +0.082 A 
ATOM     33  ND1 HIS A   4      38.088  22.027  36.408  0.00  0.00    -0.227 NA
ATOM     34  CE1 HIS A   4      38.057  22.897  35.414  0.00  0.00    +0.199 A 
ATOM     35  NE2 HIS A   4      39.290  23.321  35.193  0.00  0.00    -0.221 NA
ATOM     36  CD2 HIS A   4      40.138  22.705  36.078  0.00  0.00    +0.115 A 
ENDBRANCH  31  32
ENDBRANCH  28  31
ENDBRANCH  26  28
ENDBRANCH  23  24
BRANCH  23  37
ATOM     37  CB  THR A   3      44.388  20.188  34.466  0.00  0.00    +0.137 C 
ATOM     38  CG2 THR A   3      44.906  19.738  33.117  0.00  0.00    +0.034 C 
BRANCH  37  39
ATOM     39  OG1 THR A   3      43.902  21.526  34.349  0.00  0.00    -0.382 OA
ATOM     40  HG1 THR A   3      43.586  21.840  35.233  0.00  0.00    +0.210 HD
ENDBRANCH  37  39
ENDBRANCH  23  37
ENDBRANCH   3  23
TORSDOF 16
REMARK  Name = ../refined-set-2016/3g2n/3g2n_pocket.pdb
REMARK  248 active torsions:
REMARK  status: ('A' for Active; 'I' for Inactive)
REMARK    1  A    between atoms: _1  and  _3
REMARK    2  A    between atoms: _3  and  _4
REMARK    3  A    between atoms: _3  and  _6
REMARK    4  A    between atoms: _6  and  _7
REMARK    5  A    between atoms: _12  and  _13
REMARK    6  A    between atoms: _15  and  _17
REMARK    7  A    between atoms: _17  and  _18
REMARK    8  A    between atoms: _17  and  _20
REMARK    9  A    between atoms: _20  and  _21
REMARK   10  A    between atoms: _21  and  _22
REMARK   11  A    between atoms: _25  and  _27
REMARK   12  A    between atoms: _27  and  _28
REMARK   13  A    between atoms: _27  and  _30
REMARK   14  A    between atoms: _30  and  _31
REMARK   15  A    between atoms: _36  and  _38
REMARK   16  A    between atoms: _38  and  _39
REMARK   17  A    between atoms: _41  and  _43
REMARK   18  A    between atoms: _43  and  _44
REMARK   19  A    between atoms: _46  and  _48
REMARK   20  A    between atoms: _48  and  _49
REMARK   21  A    between atoms: _48  and  _51
REMARK   22  A    between atoms: _51  and  _52
REMARK   23  A    between atoms: _55  and  _57
REMARK   24  A    between atoms: _57  and  _58
REMARK   25  A    between atoms: _60  and  _62
REMARK   26  A    between atoms: _62  and  _63
REMARK   27  A    between atoms: _62  and  _65
REMARK   28  A    between atoms: _65  and  _66
REMARK   29  A    between atoms: _66  and  _67
REMARK   30  A    between atoms: _67  and  _68
REMARK   31  A    between atoms: _77  and  _79
REMARK   32  A    between atoms: _79  and  _80
REMARK   33  A    between atoms: _79  and  _82
REMARK   34  A    between atoms: _82  and  _83
REMARK   35  A    between atoms: _86  and  _88
REMARK   36  A    between atoms: _88  and  _89
REMARK   37  A    between atoms: _92  and  _94
REMARK   38  A    between atoms: _94  and  _95
REMARK   39  A    between atoms: _94  and  _97
REMARK   40  A    between atoms: _97  and  _98
REMARK   41  A    between atoms: _104  and  _106
REMARK   42  A    between atoms: _106  and  _107
REMARK   43  A    between atoms: _106  and  _109
REMARK   44  A    between atoms: _109  and  _110
REMARK   45  A    between atoms: _115  and  _117
REMARK   46  A    between atoms: _117  and  _118
REMARK   47  A    between atoms: _117  and  _120
REMARK   48  A    between atoms: _120  and  _121
REMARK   49  A    between atoms: _124  and  _126
REMARK   50  A    between atoms: _126  and  _127
REMARK   51  A    between atoms: _126  and  _129
REMARK   52  A    between atoms: _129  and  _130
REMARK   53  A    between atoms: _135  and  _137
REMARK   54  A    between atoms: _137  and  _138
REMARK   55  A    between atoms: _137  and  _140
REMARK   56  A    between atoms: _140  and  _141
REMARK   57  A    between atoms: _147  and  _149
REMARK   58  A    between atoms: _149  and  _150
REMARK   59  A    between atoms: _149  and  _152
REMARK   60  A    between atoms: _152  and  _153
REMARK   61  A    between atoms: _159  and  _161
REMARK   62  A    between atoms: _161  and  _162
REMARK   63  A    between atoms: _161  and  _164
REMARK   64  A    between atoms: _164  and  _165
REMARK   65  A    between atoms: _165  and  _166
REMARK   66  A    between atoms: _166  and  _167
REMARK   67  A    between atoms: _176  and  _178
REMARK   68  A    between atoms: _178  and  _179
REMARK   69  A    between atoms: _178  and  _181
REMARK   70  A    between atoms: _181  and  _182
REMARK   71  A    between atoms: _187  and  _189
REMARK   72  A    between atoms: _189  and  _190
REMARK   73  A    between atoms: _189  and  _192
REMARK   74  A    between atoms: _192  and  _193
REMARK   75  A    between atoms: _196  and  _198
REMARK   76  A    between atoms: _198  and  _199
REMARK   77  A    between atoms: _198  and  _201
REMARK   78  A    between atoms: _201  and  _202
REMARK   79  A    between atoms: _205  and  _207
REMARK   80  A    between atoms: _207  and  _208
REMARK   81  A    between atoms: _207  and  _210
REMARK   82  A    between atoms: _210  and  _211
REMARK   83  A    between atoms: _216  and  _218
REMARK   84  A    between atoms: _218  and  _219
REMARK   85  A    between atoms: _218  and  _221
REMARK   86  A    between atoms: _221  and  _222
REMARK   87  A    between atoms: _227  and  _228
REMARK   88  A    between atoms: _230  and  _232
REMARK   89  A    between atoms: _232  and  _233
REMARK   90  A    between atoms: _232  and  _235
REMARK   91  A    between atoms: _235  and  _236
REMARK   92  A    between atoms: _239  and  _241
REMARK   93  A    between atoms: _241  and  _242
REMARK   94  A    between atoms: _241  and  _244
REMARK   95  A    between atoms: _244  and  _245
REMARK   96  A    between atoms: _250  and  _252
REMARK   97  A    between atoms: _252  and  _253
REMARK   98  A    between atoms: _252  and  _255
REMARK   99  A    between atoms: _255  and  _256
REMARK  100  A    between atoms: _261  and  _263
REMARK  101  A    between atoms: _263  and  _264
REMARK  102  A    between atoms: _263  and  _266
REMARK  103  A    between atoms: _266  and  _267
REMARK  104  A    between atoms: _270  and  _272
REMARK  105  A    between atoms: _272  and  _273
REMARK  106  A    between atoms: _272  and  _275
REMARK  107  A    between atoms: _278  and  _280
REMARK  108  A    between atoms: _280  and  _281
REMARK  109  A    between atoms: _280  and  _283
REMARK  110  A    between atoms: _283  and  _284
REMARK  111  A    between atoms: _287  and  _289
REMARK  112  A    between atoms: _289  and  _290
REMARK  113  A    between atoms: _289  and  _292
REMARK  114  A    between atoms: _292  and  _293
REMARK  115  A    between atoms: _293  and  _294
REMARK  116  A    between atoms: _297  and  _299
REMARK  117  A    between atoms: _299  and  _300
REMARK  118  A    between atoms: _303  and  _305
REMARK  119  A    between atoms: _305  and  _306
REMARK  120  A    between atoms: _305  and  _308
REMARK  121  A    between atoms: _308  and  _309
REMARK  122  A    between atoms: _312  and  _314
REMARK  123  A    between atoms: _314  and  _315
REMARK  124  A    between atoms: _314  and  _317
REMARK  125  A    between atoms: _317  and  _318
REMARK  126  A    between atoms: _318  and  _319
REMARK  127  A    between atoms: _322  and  _324
REMARK  128  A    between atoms: _324  and  _325
REMARK  129  A    between atoms: _324  and  _327
REMARK  130  A    between atoms: _327  and  _328
REMARK  131  A    between atoms: _333  and  _335
REMARK  132  A    between atoms: _335  and  _336
REMARK  133  A    between atoms: _338  and  _340
REMARK  134  A    between atoms: _340  and  _341
REMARK  135  A    between atoms: _340  and  _343
REMARK  136  A    between atoms: _346  and  _348
REMARK  137  A    between atoms: _348  and  _349
REMARK  138  A    between atoms: _352  and  _354
REMARK  139  A    between atoms: _354  and  _355
REMARK  140  A    between atoms: _354  and  _357
REMARK  141  A    between atoms: _357  and  _358
REMARK  142  A    between atoms: _363  and  _365
REMARK  143  A    between atoms: _365  and  _366
REMARK  144  A    between atoms: _365  and  _368
REMARK  145  A    between atoms: _368  and  _369
REMARK  146  A    between atoms: _369  and  _370
REMARK  147  A    between atoms: _370  and  _371
REMARK  148  A    between atoms: _371  and  _372
REMARK  149  A    between atoms: _376  and  _378
REMARK  150  A    between atoms: _378  and  _379
REMARK  151  A    between atoms: _378  and  _381
REMARK  152  A    between atoms: _381  and  _382
REMARK  153  A    between atoms: _385  and  _387
REMARK  154  A    between atoms: _387  and  _388
REMARK  155  A    between atoms: _387  and  _390
REMARK  156  A    between atoms: _390  and  _391
REMARK  157  A    between atoms: _396  and  _398
REMARK  158  A    between atoms: _398  and  _399
REMARK  159  A    between atoms: _401  and  _403
REMARK  160  A    between atoms: _403  and  _404
REMARK  161  A    between atoms: _403  and  _406
REMARK  162  A    between atoms: _406  and  _407
REMARK  163  A    between atoms: _407  and  _408
REMARK  164  A    between atoms: _408  and  _409
REMARK  165  A    between atoms: _409  and  _410
REMARK  166  A    between atoms: _414  and  _416
REMARK  167  A    between atoms: _416  and  _417
REMARK  168  A    between atoms: _416  and  _419
REMARK  169  A    between atoms: _419  and  _420
REMARK  170  A    between atoms: _420  and  _421
REMARK  171  A    between atoms: _421  and  _422
REMARK  172  A    between atoms: _431  and  _433
REMARK  173  A    between atoms: _433  and  _434
REMARK  174  A    between atoms: _433  and  _436
REMARK  175  A    between atoms: _436  and  _437
REMARK  176  A    between atoms: _442  and  _444
REMARK  177  A    between atoms: _444  and  _445
REMARK  178  A    between atoms: _444  and  _447
REMARK  179  A    between atoms: _447  and  _448
REMARK  180  A    between atoms: _453  and  _454
REMARK  181  A    between atoms: _456  and  _458
REMARK  182  A    between atoms: _458  and  _459
REMARK  183  A    between atoms: _458  and  _461
REMARK  184  A    between atoms: _461  and  _462
REMARK  185  A    between atoms: _462  and  _463
REMARK  186  A    between atoms: _463  and  _464
REMARK  187  A    between atoms: _464  and  _465
REMARK  188  A    between atoms: _469  and  _471
REMARK  189  A    between atoms: _471  and  _472
REMARK  190  A    between atoms: _471  and  _474
REMARK  191  A    between atoms: _474  and  _475
REMARK  192  A    between atoms: _477  and  _479
REMARK  193  A    between atoms: _479  and  _480
REMARK  194  A    between atoms: _479  and  _482
REMARK  195  A    between atoms: _482  and  _483
REMARK  196  A    between atoms: _486  and  _488
REMARK  197  A    between atoms: _488  and  _489
REMARK  198  A    between atoms: _488  and  _491
REMARK  199  A    between atoms: _491  and  _492
REMARK  200  A    between atoms: _492  and  _493
REMARK  201  A    between atoms: _496  and  _498
REMARK  202  A    between atoms: _498  and  _499
REMARK  203  A    between atoms: _502  and  _504
REMARK  204  A    between atoms: _504  and  _505
REMARK  205  A    between atoms: _504  and  _507
REMARK  206  A    between atoms: _507  and  _508
REMARK  207  A    between atoms: _510  and  _512
REMARK  208  A    between atoms: _512  and  _513
REMARK  209  A    between atoms: _515  and  _517
REMARK  210  A    between atoms: _517  and  _518
REMARK  211  A    between atoms: _517  and  _520
REMARK  212  A    between atoms: _520  and  _521
REMARK  213  A    between atoms: _524  and  _526
REMARK  214  A    between atoms: _526  and  _527
REMARK  215  A    between atoms: _529  and  _531
REMARK  216  A    between atoms: _531  and  _532
REMARK  217  A    between atoms: _531  and  _534
REMARK  218  A    between atoms: _534  and  _535
REMARK  219  A    between atoms: _540  and  _542
REMARK  220  A    between atoms: _542  and  _543
REMARK  221  A    between atoms: _542  and  _545
REMARK  222  A    between atoms: _545  and  _546
REMARK  223  A    between atoms: _546  and  _547
REMARK  224  A    between atoms: _554  and  _555
REMARK  225  A    between atoms: _555  and  _571
REMARK  226  A    between atoms: _556  and  _558
REMARK  227  A    between atoms: _558  and  _559
REMARK  228  A    between atoms: _559  and  _560
REMARK  229  A    between atoms: _564  and  _566
REMARK  230  A    between atoms: _566  and  _567
REMARK  231  A    between atoms: _566  and  _574
REMARK  232  A    between atoms: _567  and  _568
REMARK  233  A    between atoms: _568  and  _569
REMARK  234  A    between atoms: _569  and  _570
REMARK  235  A    between atoms: _570  and  _571
REMARK  236  A    between atoms: _576  and  _578
REMARK  237  A    between atoms: _578  and  _579
REMARK  238  A    between atoms: _578  and  _581
REMARK  239  A    between atoms: _581  and  _582
REMARK  240  A    between atoms: _585  and  _587
REMARK  241  A    between atoms: _587  and  _588
REMARK  242  A    between atoms: _590  and  _592
REMARK  243  A    between atoms: _592  and  _593
REMARK  244  A    between atoms: _596  and  _598
REMARK  245  A    between atoms: _598  and  _599
REMARK  246  A    between atoms: _598  and  _601
REMARK  247  A    between atoms: _601  and  _602
REMARK  248  A    between atoms: _607  and  _608
REMARK                            x       y       z     vdW  Elec       q    Type
REMARK                         _______ _______ _______ _____ _____    ______ ____
ROOT
ATOM      1  C   ASN A   3      39.593  18.163  27.468  0.00  0.00    +0.241 C 
ATOM      2  N   HIS A   4      39.246  19.357  27.943  0.00  0.00    -0.297 N 
ATOM      3  H   HIS A   4      39.893  19.853  28.589  0.00  0.00    +0.150 HD
ATOM      4  O   ASN A   3      38.934  17.558  26.619  0.00  0.00    -0.273 OA
ENDROOT
BRANCH   2   5
ATOM      5  CA  HIS A   4      37.981  19.989  27.580  0.00  0.00    +0.155 C 
BRANCH   5   6
ATOM      6  C   HIS A   4      38.128  21.348  26.887  0.00  0.00    +0.241 C 
ATOM      7  O   HIS A   4      37.132  22.024  26.668  0.00  0.00    -0.273 OA
ATOM      8  N   THR A   5      39.354  21.750  26.551  0.00  0.00    -0.295 N 
ATOM      9  H   THR A   5      40.175  21.168  26.814  0.00  0.00    +0.150 HD
BRANCH   8  10
ATOM     10  CA  THR A   5      39.562  23.004  25.814  0.00  0.00    +0.176 C 
BRANCH  10  11
ATOM     11  C   THR A   5      40.991  23.157  25.312  0.00  0.00    +0.243 C 
ATOM     12  O   THR A   5      41.924  22.605  25.901  0.00  0.00    -0.273 OA
ATOM     13  N   VAL A   6      41.147  23.903  24.219  0.00  0.00    -0.297 N 
ATOM     14  H   VAL A   6      40.304  24.269  23.732  0.00  0.00    +0.150 HD
BRANCH  13  15
ATOM     15  CA  VAL A   6      42.468  24.222  23.685  0.00  0.00    +0.149 C 
BRANCH  15  16
ATOM     16  C   VAL A   6      42.808  25.700  23.857  0.00  0.00    +0.241 C 
ATOM     17  N   LEU A   7      41.853  26.497  24.332  0.00  0.00    -0.298 N 
ATOM     18  H   LEU A   7      40.911  26.105  24.535  0.00  0.00    +0.150 HD
ATOM     19  O   VAL A   6      43.921  26.107  23.554  0.00  0.00    -0.273 OA
BRANCH  17  20
ATOM     20  CA  LEU A   7      42.112  27.916  24.572  0.00  0.00    +0.137 C 
BRANCH  20  21
ATOM     21  C   LEU A   7      43.238  28.079  25.588  0.00  0.00    +0.227 C 
ATOM     22  O   LEU A   7      43.134  27.583  26.709  0.00  0.00    -0.286 OA
ENDBRANCH  20  21
BRANCH  20  23
ATOM     23  CB  LEU A   7      40.858  28.650  25.051  0.00  0.00    +0.028 C 
BRANCH  23  24
ATOM     24  CG  LEU A   7      39.644  28.798  24.130  0.00  0.00    +0.002 C 
ATOM     25  CD2 LEU A   7      38.664  29.759  24.787  0.00  0.00    +0.000 C 
ATOM     26  CD1 LEU A   7      40.027  29.297  22.733  0.00  0.00    +0.000 C 
ENDBRANCH  23  24
ENDBRANCH  20  23
ENDBRANCH  17  20
ENDBRANCH  15  16
BRANCH  15  27
ATOM     27  CB  VAL A   6      42.631  23.838  22.184  0.00  0.00    +0.027 C 
ATOM     28  CG2 VAL A   6      42.423  22.331  21.974  0.00  0.00    +0.002 C 
ATOM     29  CG1 VAL A   6      41.700  24.689  21.291  0.00  0.00    +0.002 C 
ENDBRANCH  15  27
ENDBRANCH  13  15
ENDBRANCH  10  11
BRANCH  10  30
ATOM     30  CB  THR A   5      39.154  24.263  26.643  0.00  0.00    +0.137 C 
ATOM     31  CG2 THR A   5      40.016  24.407  27.895  0.00  0.00    +0.034 C 
BRANCH  30  32
ATOM     32  OG1 THR A   5      39.271  25.441  25.833  0.00  0.00    -0.382 OA
ATOM     33  HG1 THR A   5      39.011  26.234  26.366  0.00  0.00    +0.210 HD
ENDBRANCH  30  32
ENDBRANCH  10  30
ENDBRANCH   8  10
ENDBRANCH   5   6
BRANCH   5  34
ATOM     34  CB  HIS A   4      37.079  20.146  28.808  0.00  0.00    +0.076 C 
BRANCH  34  35
ATOM     35  CG  HIS A   4      36.614  18.854  29.393  0.00  0.00    +0.082 A 
ATOM     36  CD2 HIS A   4      37.187  18.033  30.304  0.00  0.00    +0.115 A 
ATOM     37  NE2 HIS A   4      36.325  16.983  30.501  0.00  0.00    -0.221 NA
ATOM     38  CE1 HIS A   4      35.263  17.150  29.733  0.00  0.00    +0.199 A 
ATOM     39  ND1 HIS A   4      35.409  18.276  29.059  0.00  0.00    -0.227 NA
ENDBRANCH  34  35
ENDBRANCH   5  34
ENDBRANCH   2   5
BRANCH   1  40
ATOM     40  CA  ASN A   3      40.884  17.567  28.009  0.00  0.00    +0.158 C 
BRANCH  40  43
ATOM     41  C   THR A   2      40.280  15.692  29.467  0.00  0.00    +0.243 C 
ATOM     42  O   THR A   2      40.069  16.420  30.439  0.00  0.00    -0.273 OA
ATOM     43  N   ASN A   3      40.714  16.143  28.293  0.00  0.00    -0.297 N 
ATOM     44  H   ASN A   3      40.942  15.455  27.547  0.00  0.00    +0.150 HD
BRANCH  41  45
ATOM     45  CA  THR A   2      40.030  14.191  29.559  0.00  0.00    +0.176 C 
BRANCH  45  47
ATOM     46  C   TYR A   1      41.868  12.837  30.410  0.00  0.00    +0.239 C 
ATOM     47  N   THR A   2      40.837  13.641  30.637  0.00  0.00    -0.295 N 
ATOM     48  H   THR A   2      40.598  13.886  31.619  0.00  0.00    +0.150 HD
ATOM     49  O   TYR A   1      42.163  12.411  29.296  0.00  0.00    -0.274 OA
BRANCH  46  50
ATOM     50  CA  TYR A   1      42.680  12.450  31.632  0.00  0.00    +0.149 C 
BRANCH  50  51
ATOM     51  N   TYR A   1      42.901  11.012  31.683  0.00  0.00    -0.238 NA
ATOM     52  H   TYR A   1      43.320  10.539  30.857  0.00  0.00    +0.142 HD
ENDBRANCH  50  51
BRANCH  50  53
ATOM     53  CB  TYR A   1      44.029  13.178  31.665  0.00  0.00    +0.053 C 
BRANCH  53  54
ATOM     54  CG  TYR A   1      44.090  14.607  31.118  0.00  0.00    -0.020 A 
ATOM     55  CD2 TYR A   1      43.333  15.637  31.675  0.00  0.00    -0.001 A 
ATOM     56  CE2 TYR A   1      43.415  16.942  31.182  0.00  0.00    +0.036 A 
ATOM     57  CZ  TYR A   1      44.282  17.229  30.137  0.00  0.00    +0.134 A 
ATOM     58  CE1 TYR A   1      45.055  16.227  29.578  0.00  0.00    +0.036 A 
ATOM     59  CD1 TYR A   1      44.960  14.927  30.077  0.00  0.00    -0.001 A 
BRANCH  57  60
ATOM     60  OH  TYR A   1      44.373  18.513  29.646  0.00  0.00    -0.506 OA
ATOM     61  HH  TYR A   1      43.488  18.799  29.307  0.00  0.00    +0.292 HD
ENDBRANCH  57  60
ENDBRANCH  53  54
ENDBRANCH  50  53
ENDBRANCH  46  50
ENDBRANCH  45  47
BRANCH  45  62
ATOM     62  CB  THR A   2      38.516  13.929  29.790  0.00  0.00    +0.137 C 
ATOM     63  CG2 THR A   2      37.685  14.454  28.634  0.00  0.00    +0.034 C 
BRANCH  62  64
ATOM     64  OG1 THR A   2      38.283  12.524  29.918  0.00  0.00    -0.382 OA
ATOM     65  HG1 THR A   2      38.573  12.066  29.090  0.00  0.00    +0.210 HD
ENDBRANCH  62  64
ENDBRANCH  45  62
ENDBRANCH  41  45
ENDBRANCH  40  43
BRANCH  40  66
ATOM     66  CB  ASN A   3      42.032  17.773  27.008  0.00  0.00    +0.114 C 
BRANCH  66  67
ATOM     67  CG  ASN A   3      42.168  19.219  26.558  0.00  0.00    +0.222 C 
ATOM     68  ND2 ASN A   3      43.093  19.948  27.167  0.00  0.00    -0.329 N 
ATOM     69 HD21 ASN A   3      43.676  19.526  27.918  0.00  0.00    +0.145 HD
ATOM     70 HD22 ASN A   3      43.235  20.941  26.894  0.00  0.00    +0.145 HD
ATOM     71  OD1 ASN A   3      41.456  19.668  25.669  0.00  0.00    -0.275 OA
ENDBRANCH  66  67
ENDBRANCH  40  66
ENDBRANCH   1  40
TORSDOF 28
REMARK  Name = ../refined-set-2016/3g2n/3g2n_pocket.pdb
REMARK  248 active torsions:
REMARK  status: ('A' for Active; 'I' for Inactive)
REMARK    1  A    between atoms: _1  and  _3
REMARK    2  A    between atoms: _3  and  _4
REMARK    3  A    between atoms: _3  and  _6
REMARK    4  A    between atoms: _6  and  _7
REMARK    5  A    between atoms: _12  and  _13
REMARK    6  A    between atoms: _15  and  _17
REMARK    7  A    between atoms: _17  and  _18
REMARK    8  A    between atoms: _17  and  _20
REMARK    9  A    between atoms: _20  and  _21
REMARK   10  A    between atoms: _21  and  _22
REMARK   11  A    between atoms: _25  and  _27
REMARK   12  A    between atoms: _27  and  _28
REMARK   13  A    between atoms: _27  and  _30
REMARK   14  A    between atoms: _30  and  _31
REMARK   15  A    between atoms: _36  and  _38
REMARK   16  A    between atoms: _38  and  _39
REMARK   17  A    between atoms: _41  and  _43
REMARK   18  A    between atoms: _43  and  _44
REMARK   19  A    between atoms: _46  and  _48
REMARK   20  A    between atoms: _48  and  _49
REMARK   21  A    between atoms: _48  and  _51
REMARK   22  A    between atoms: _51  and  _52
REMARK   23  A    between atoms: _55  and  _57
REMARK   24  A    between atoms: _57  and  _58
REMARK   25  A    between atoms: _60  and  _62
REMARK   26  A    between atoms: _62  and  _63
REMARK   27  A    between atoms: _62  and  _65
REMARK   28  A    between atoms: _65  and  _66
REMARK   29  A    between atoms: _66  and  _67
REMARK   30  A    between atoms: _67  and  _68
REMARK   31  A    between atoms: _77  and  _79
REMARK   32  A    between atoms: _79  and  _80
REMARK   33  A    between atoms: _79  and  _82
REMARK   34  A    between atoms: _82  and  _83
REMARK   35  A    between atoms: _86  and  _88
REMARK   36  A    between atoms: _88  and  _89
REMARK   37  A    between atoms: _92  and  _94
REMARK   38  A    between atoms: _94  and  _95
REMARK   39  A    between atoms: _94  and  _97
REMARK   40  A    between atoms: _97  and  _98
REMARK   41  A    between atoms: _104  and  _106
REMARK   42  A    between atoms: _106  and  _107
REMARK   43  A    between atoms: _106  and  _109
REMARK   44  A    between atoms: _109  and  _110
REMARK   45  A    between atoms: _115  and  _117
REMARK   46  A    between atoms: _117  and  _118
REMARK   47  A    between atoms: _117  and  _120
REMARK   48  A    between atoms: _120  and  _121
REMARK   49  A    between atoms: _124  and  _126
REMARK   50  A    between atoms: _126  and  _127
REMARK   51  A    between atoms: _126  and  _129
REMARK   52  A    between atoms: _129  and  _130
REMARK   53  A    between atoms: _135  and  _137
REMARK   54  A    between atoms: _137  and  _138
REMARK   55  A    between atoms: _137  and  _140
REMARK   56  A    between atoms: _140  and  _141
REMARK   57  A    between atoms: _147  and  _149
REMARK   58  A    between atoms: _149  and  _150
REMARK   59  A    between atoms: _149  and  _152
REMARK   60  A    between atoms: _152  and  _153
REMARK   61  A    between atoms: _159  and  _161
REMARK   62  A    between atoms: _161  and  _162
REMARK   63  A    between atoms: _161  and  _164
REMARK   64  A    between atoms: _164  and  _165
REMARK   65  A    between atoms: _165  and  _166
REMARK   66  A    between atoms: _166  and  _167
REMARK   67  A    between atoms: _176  and  _178
REMARK   68  A    between atoms: _178  and  _179
REMARK   69  A    between atoms: _178  and  _181
REMARK   70  A    between atoms: _181  and  _182
REMARK   71  A    between atoms: _187  and  _189
REMARK   72  A    between atoms: _189  and  _190
REMARK   73  A    between atoms: _189  and  _192
REMARK   74  A    between atoms: _192  and  _193
REMARK   75  A    between atoms: _196  and  _198
REMARK   76  A    between atoms: _198  and  _199
REMARK   77  A    between atoms: _198  and  _201
REMARK   78  A    between atoms: _201  and  _202
REMARK   79  A    between atoms: _205  and  _207
REMARK   80  A    between atoms: _207  and  _208
REMARK   81  A    between atoms: _207  and  _210
REMARK   82  A    between atoms: _210  and  _211
REMARK   83  A    between atoms: _216  and  _218
REMARK   84  A    between atoms: _218  and  _219
REMARK   85  A    between atoms: _218  and  _221
REMARK   86  A    between atoms: _221  and  _222
REMARK   87  A    between atoms: _227  and  _228
REMARK   88  A    between atoms: _230  and  _232
REMARK   89  A    between atoms: _232  and  _233
REMARK   90  A    between atoms: _232  and  _235
REMARK   91  A    between atoms: _235  and  _236
REMARK   92  A    between atoms: _239  and  _241
REMARK   93  A    between atoms: _241  and  _242
REMARK   94  A    between atoms: _241  and  _244
REMARK   95  A    between atoms: _244  and  _245
REMARK   96  A    between atoms: _250  and  _252
REMARK   97  A    between atoms: _252  and  _253
REMARK   98  A    between atoms: _252  and  _255
REMARK   99  A    between atoms: _255  and  _256
REMARK  100  A    between atoms: _261  and  _263
REMARK  101  A    between atoms: _263  and  _264
REMARK  102  A    between atoms: _263  and  _266
REMARK  103  A    between atoms: _266  and  _267
REMARK  104  A    between atoms: _270  and  _272
REMARK  105  A    between atoms: _272  and  _273
REMARK  106  A    between atoms: _272  and  _275
REMARK  107  A    between atoms: _278  and  _280
REMARK  108  A    between atoms: _280  and  _281
REMARK  109  A    between atoms: _280  and  _283
REMARK  110  A    between atoms: _283  and  _284
REMARK  111  A    between atoms: _287  and  _289
REMARK  112  A    between atoms: _289  and  _290
REMARK  113  A    between atoms: _289  and  _292
REMARK  114  A    between atoms: _292  and  _293
REMARK  115  A    between atoms: _293  and  _294
REMARK  116  A    between atoms: _297  and  _299
REMARK  117  A    between atoms: _299  and  _300
REMARK  118  A    between atoms: _303  and  _305
REMARK  119  A    between atoms: _305  and  _306
REMARK  120  A    between atoms: _305  and  _308
REMARK  121  A    between atoms: _308  and  _309
REMARK  122  A    between atoms: _312  and  _314
REMARK  123  A    between atoms: _314  and  _315
REMARK  124  A    between atoms: _314  and  _317
REMARK  125  A    between atoms: _317  and  _318
REMARK  126  A    between atoms: _318  and  _319
REMARK  127  A    between atoms: _322  and  _324
REMARK  128  A    between atoms: _324  and  _325
REMARK  129  A    between atoms: _324  and  _327
REMARK  130  A    between atoms: _327  and  _328
REMARK  131  A    between atoms: _333  and  _335
REMARK  132  A    between atoms: _335  and  _336
REMARK  133  A    between atoms: _338  and  _340
REMARK  134  A    between atoms: _340  and  _341
REMARK  135  A    between atoms: _340  and  _343
REMARK  136  A    between atoms: _346  and  _348
REMARK  137  A    between atoms: _348  and  _349
REMARK  138  A    between atoms: _352  and  _354
REMARK  139  A    between atoms: _354  and  _355
REMARK  140  A    between atoms: _354  and  _357
REMARK  141  A    between atoms: _357  and  _358
REMARK  142  A    between atoms: _363  and  _365
REMARK  143  A    between atoms: _365  and  _366
REMARK  144  A    between atoms: _365  and  _368
REMARK  145  A    between atoms: _368  and  _369
REMARK  146  A    between atoms: _369  and  _370
REMARK  147  A    between atoms: _370  and  _371
REMARK  148  A    between atoms: _371  and  _372
REMARK  149  A    between atoms: _376  and  _378
REMARK  150  A    between atoms: _378  and  _379
REMARK  151  A    between atoms: _378  and  _381
REMARK  152  A    between atoms: _381  and  _382
REMARK  153  A    between atoms: _385  and  _387
REMARK  154  A    between atoms: _387  and  _388
REMARK  155  A    between atoms: _387  and  _390
REMARK  156  A    between atoms: _390  and  _391
REMARK  157  A    between atoms: _396  and  _398
REMARK  158  A    between atoms: _398  and  _399
REMARK  159  A    between atoms: _401  and  _403
REMARK  160  A    between atoms: _403  and  _404
REMARK  161  A    between atoms: _403  and  _406
REMARK  162  A    between atoms: _406  and  _407
REMARK  163  A    between atoms: _407  and  _408
REMARK  164  A    between atoms: _408  and  _409
REMARK  165  A    between atoms: _409  and  _410
REMARK  166  A    between atoms: _414  and  _416
REMARK  167  A    between atoms: _416  and  _417
REMARK  168  A    between atoms: _416  and  _419
REMARK  169  A    between atoms: _419  and  _420
REMARK  170  A    between atoms: _420  and  _421
REMARK  171  A    between atoms: _421  and  _422
REMARK  172  A    between atoms: _431  and  _433
REMARK  173  A    between atoms: _433  and  _434
REMARK  174  A    between atoms: _433  and  _436
REMARK  175  A    between atoms: _436  and  _437
REMARK  176  A    between atoms: _442  and  _444
REMARK  177  A    between atoms: _444  and  _445
REMARK  178  A    between atoms: _444  and  _447
REMARK  179  A    between atoms: _447  and  _448
REMARK  180  A    between atoms: _453  and  _454
REMARK  181  A    between atoms: _456  and  _458
REMARK  182  A    between atoms: _458  and  _459
REMARK  183  A    between atoms: _458  and  _461
REMARK  184  A    between atoms: _461  and  _462
REMARK  185  A    between atoms: _462  and  _463
REMARK  186  A    between atoms: _463  and  _464
REMARK  187  A    between atoms: _464  and  _465
REMARK  188  A    between atoms: _469  and  _471
REMARK  189  A    between atoms: _471  and  _472
REMARK  190  A    between atoms: _471  and  _474
REMARK  191  A    between atoms: _474  and  _475
REMARK  192  A    between atoms: _477  and  _479
REMARK  193  A    between atoms: _479  and  _480
REMARK  194  A    between atoms: _479  and  _482
REMARK  195  A    between atoms: _482  and  _483
REMARK  196  A    between atoms: _486  and  _488
REMARK  197  A    between atoms: _488  and  _489
REMARK  198  A    between atoms: _488  and  _491
REMARK  199  A    between atoms: _491  and  _492
REMARK  200  A    between atoms: _492  and  _493
REMARK  201  A    between atoms: _496  and  _498
REMARK  202  A    between atoms: _498  and  _499
REMARK  203  A    between atoms: _502  and  _504
REMARK  204  A    between atoms: _504  and  _505
REMARK  205  A    between atoms: _504  and  _507
REMARK  206  A    between atoms: _507  and  _508
REMARK  207  A    between atoms: _510  and  _512
REMARK  208  A    between atoms: _512  and  _513
REMARK  209  A    between atoms: _515  and  _517
REMARK  210  A    between atoms: _517  and  _518
REMARK  211  A    between atoms: _517  and  _520
REMARK  212  A    between atoms: _520  and  _521
REMARK  213  A    between atoms: _524  and  _526
REMARK  214  A    between atoms: _526  and  _527
REMARK  215  A    between atoms: _529  and  _531
REMARK  216  A    between atoms: _531  and  _532
REMARK  217  A    between atoms: _531  and  _534
REMARK  218  A    between atoms: _534  and  _535
REMARK  219  A    between atoms: _540  and  _542
REMARK  220  A    between atoms: _542  and  _543
REMARK  221  A    between atoms: _542  and  _545
REMARK  222  A    between atoms: _545  and  _546
REMARK  223  A    between atoms: _546  and  _547
REMARK  224  A    between atoms: _554  and  _555
REMARK  225  A    between atoms: _555  and  _571
REMARK  226  A    between atoms: _556  and  _558
REMARK  227  A    between atoms: _558  and  _559
REMARK  228  A    between atoms: _559  and  _560
REMARK  229  A    between atoms: _564  and  _566
REMARK  230  A    between atoms: _566  and  _567
REMARK  231  A    between atoms: _566  and  _574
REMARK  232  A    between atoms: _567  and  _568
REMARK  233  A    between atoms: _568  and  _569
REMARK  234  A    between atoms: _569  and  _570
REMARK  235  A    between atoms: _570  and  _571
REMARK  236  A    between atoms: _576  and  _578
REMARK  237  A    between atoms: _578  and  _579
REMARK  238  A    between atoms: _578  and  _581
REMARK  239  A    between atoms: _581  and  _582
REMARK  240  A    between atoms: _585  and  _587
REMARK  241  A    between atoms: _587  and  _588
REMARK  242  A    between atoms: _590  and  _592
REMARK  243  A    between atoms: _592  and  _593
REMARK  244  A    between atoms: _596  and  _598
REMARK  245  A    between atoms: _598  and  _599
REMARK  246  A    between atoms: _598  and  _601
REMARK  247  A    between atoms: _601  and  _602
REMARK  248  A    between atoms: _607  and  _608
REMARK                            x       y       z     vdW  Elec       q    Type
REMARK                         _______ _______ _______ _____ _____    ______ ____
ROOT
ATOM      1  C   ALA A   2      42.902  27.281  30.801  0.00  0.00    +0.241 C 
ATOM      2  O   ALA A   2      42.459  26.577  31.710  0.00  0.00    -0.273 OA
ATOM      3  N   LEU A   3      44.149  27.168  30.343  0.00  0.00    -0.297 N 
ATOM      4  H   LEU A   3      44.487  27.832  29.617  0.00  0.00    +0.150 HD
ENDROOT
BRANCH   1   5
ATOM      5  CA  ALA A   2      42.020  28.346  30.146  0.00  0.00    +0.149 C 
ATOM      6  CB  ALA A   2      40.888  27.698  29.359  0.00  0.00    +0.031 C 
BRANCH   5   9
ATOM      7  C   GLU A   1      43.293  30.383  29.728  0.00  0.00    +0.238 C 
ATOM      8  O   GLU A   1      43.165  30.762  30.894  0.00  0.00    -0.274 OA
ATOM      9  N   ALA A   2      42.786  29.239  29.284  0.00  0.00    -0.297 N 
ATOM     10  H   ALA A   2      42.940  28.971  28.291  0.00  0.00    +0.150 HD
BRANCH   7  11
ATOM     11  CA  GLU A   1      44.065  31.235  28.707  0.00  0.00    +0.145 C 
BRANCH  11  12
ATOM     12  N   GLU A   1      44.355  30.544  27.444  0.00  0.00    -0.238 NA
ATOM     13  H   GLU A   1      43.845  30.823  26.582  0.00  0.00    +0.142 HD
ENDBRANCH  11  12
BRANCH  11  14
ATOM     14  CB  GLU A   1      43.344  32.572  28.458  0.00  0.00    +0.038 C 
BRANCH  14  15
ATOM     15  CG  GLU A   1      41.927  32.469  27.874  0.00  0.00    +0.116 C 
BRANCH  15  16
ATOM     16  CD  GLU A   1      41.892  32.462  26.344  0.00  0.00    +0.365 C 
ATOM     17  OE2 GLU A   1      40.840  32.826  25.776  0.00  0.00    -0.246 OA
ATOM     18  OE1 GLU A   1      42.901  32.093  25.709  0.00  0.00    -0.246 OA
ENDBRANCH  15  16
ENDBRANCH  14  15
ENDBRANCH  11  14
ENDBRANCH   7  11
ENDBRANCH   5   9
ENDBRANCH   1   5
BRANCH   3  19
ATOM     19  CA  LEU A   3      45.051  26.132  30.838  0.00  0.00    +0.149 C 
BRANCH  19  20
ATOM     20  C   LEU A   3      45.624  26.469  32.214  0.00  0.00    +0.241 C 
ATOM     21  N   GLU A   4      45.692  25.456  33.078  0.00  0.00    -0.298 N 
ATOM     22  H   GLU A   4      45.410  24.506  32.763  0.00  0.00    +0.150 HD
ATOM     23  O   LEU A   3      45.970  27.620  32.491  0.00  0.00    -0.273 OA
BRANCH  21  24
ATOM     24  CA  GLU A   4      46.149  25.638  34.452  0.00  0.00    +0.137 C 
BRANCH  24  25
ATOM     25  C   GLU A   4      47.662  25.583  34.547  0.00  0.00    +0.227 C 
ATOM     26  O   GLU A   4      48.274  24.557  34.274  0.00  0.00    -0.286 OA
ENDBRANCH  24  25
BRANCH  24  27
ATOM     27  CB  GLU A   4      45.540  24.588  35.380  0.00  0.00    +0.039 C 
BRANCH  27  28
ATOM     28  CG  GLU A   4      44.054  24.783  35.650  0.00  0.00    +0.116 C 
BRANCH  28  29
ATOM     29  CD  GLU A   4      43.579  23.965  36.818  0.00  0.00    +0.365 C 
ATOM     30  OE2 GLU A   4      43.152  24.575  37.815  0.00  0.00    -0.246 OA
ATOM     31  OE1 GLU A   4      43.633  22.717  36.745  0.00  0.00    -0.246 OA
ENDBRANCH  28  29
ENDBRANCH  27  28
ENDBRANCH  24  27
ENDBRANCH  21  24
ENDBRANCH  19  20
BRANCH  19  32
ATOM     32  CB  LEU A   3      46.163  25.837  29.825  0.00  0.00    +0.029 C 
BRANCH  32  33
ATOM     33  CG  LEU A   3      45.742  25.344  28.430  0.00  0.00    +0.002 C 
ATOM     34  CD2 LEU A   3      44.741  24.190  28.480  0.00  0.00    +0.000 C 
ATOM     35  CD1 LEU A   3      46.968  24.940  27.617  0.00  0.00    +0.000 C 
ENDBRANCH  32  33
ENDBRANCH  19  32
ENDBRANCH   3  19
TORSDOF 16
REMARK  Name = ../refined-set-2016/3g2n/3g2n_pocket.pdb
REMARK  248 active torsions:
REMARK  status: ('A' for Active; 'I' for Inactive)
REMARK    1  A    between atoms: _1  and  _3
REMARK    2  A    between atoms: _3  and  _4
REMARK    3  A    between atoms: _3  and  _6
REMARK    4  A    between atoms: _6  and  _7
REMARK    5  A    between atoms: _12  and  _13
REMARK    6  A    between atoms: _15  and  _17
REMARK    7  A    between atoms: _17  and  _18
REMARK    8  A    between atoms: _17  and  _20
REMARK    9  A    between atoms: _20  and  _21
REMARK   10  A    between atoms: _21  and  _22
REMARK   11  A    between atoms: _25  and  _27
REMARK   12  A    between atoms: _27  and  _28
REMARK   13  A    between atoms: _27  and  _30
REMARK   14  A    between atoms: _30  and  _31
REMARK   15  A    between atoms: _36  and  _38
REMARK   16  A    between atoms: _38  and  _39
REMARK   17  A    between atoms: _41  and  _43
REMARK   18  A    between atoms: _43  and  _44
REMARK   19  A    between atoms: _46  and  _48
REMARK   20  A    between atoms: _48  and  _49
REMARK   21  A    between atoms: _48  and  _51
REMARK   22  A    between atoms: _51  and  _52
REMARK   23  A    between atoms: _55  and  _57
REMARK   24  A    between atoms: _57  and  _58
REMARK   25  A    between atoms: _60  and  _62
REMARK   26  A    between atoms: _62  and  _63
REMARK   27  A    between atoms: _62  and  _65
REMARK   28  A    between atoms: _65  and  _66
REMARK   29  A    between atoms: _66  and  _67
REMARK   30  A    between atoms: _67  and  _68
REMARK   31  A    between atoms: _77  and  _79
REMARK   32  A    between atoms: _79  and  _80
REMARK   33  A    between atoms: _79  and  _82
REMARK   34  A    between atoms: _82  and  _83
REMARK   35  A    between atoms: _86  and  _88
REMARK   36  A    between atoms: _88  and  _89
REMARK   37  A    between atoms: _92  and  _94
REMARK   38  A    between atoms: _94  and  _95
REMARK   39  A    between atoms: _94  and  _97
REMARK   40  A    between atoms: _97  and  _98
REMARK   41  A    between atoms: _104  and  _106
REMARK   42  A    between atoms: _106  and  _107
REMARK   43  A    between atoms: _106  and  _109
REMARK   44  A    between atoms: _109  and  _110
REMARK   45  A    between atoms: _115  and  _117
REMARK   46  A    between atoms: _117  and  _118
REMARK   47  A    between atoms: _117  and  _120
REMARK   48  A    between atoms: _120  and  _121
REMARK   49  A    between atoms: _124  and  _126
REMARK   50  A    between atoms: _126  and  _127
REMARK   51  A    between atoms: _126  and  _129
REMARK   52  A    between atoms: _129  and  _130
REMARK   53  A    between atoms: _135  and  _137
REMARK   54  A    between atoms: _137  and  _138
REMARK   55  A    between atoms: _137  and  _140
REMARK   56  A    between atoms: _140  and  _141
REMARK   57  A    between atoms: _147  and  _149
REMARK   58  A    between atoms: _149  and  _150
REMARK   59  A    between atoms: _149  and  _152
REMARK   60  A    between atoms: _152  and  _153
REMARK   61  A    between atoms: _159  and  _161
REMARK   62  A    between atoms: _161  and  _162
REMARK   63  A    between atoms: _161  and  _164
REMARK   64  A    between atoms: _164  and  _165
REMARK   65  A    between atoms: _165  and  _166
REMARK   66  A    between atoms: _166  and  _167
REMARK   67  A    between atoms: _176  and  _178
REMARK   68  A    between atoms: _178  and  _179
REMARK   69  A    between atoms: _178  and  _181
REMARK   70  A    between atoms: _181  and  _182
REMARK   71  A    between atoms: _187  and  _189
REMARK   72  A    between atoms: _189  and  _190
REMARK   73  A    between atoms: _189  and  _192
REMARK   74  A    between atoms: _192  and  _193
REMARK   75  A    between atoms: _196  and  _198
REMARK   76  A    between atoms: _198  and  _199
REMARK   77  A    between atoms: _198  and  _201
REMARK   78  A    between atoms: _201  and  _202
REMARK   79  A    between atoms: _205  and  _207
REMARK   80  A    between atoms: _207  and  _208
REMARK   81  A    between atoms: _207  and  _210
REMARK   82  A    between atoms: _210  and  _211
REMARK   83  A    between atoms: _216  and  _218
REMARK   84  A    between atoms: _218  and  _219
REMARK   85  A    between atoms: _218  and  _221
REMARK   86  A    between atoms: _221  and  _222
REMARK   87  A    between atoms: _227  and  _228
REMARK   88  A    between atoms: _230  and  _232
REMARK   89  A    between atoms: _232  and  _233
REMARK   90  A    between atoms: _232  and  _235
REMARK   91  A    between atoms: _235  and  _236
REMARK   92  A    between atoms: _239  and  _241
REMARK   93  A    between atoms: _241  and  _242
REMARK   94  A    between atoms: _241  and  _244
REMARK   95  A    between atoms: _244  and  _245
REMARK   96  A    between atoms: _250  and  _252
REMARK   97  A    between atoms: _252  and  _253
REMARK   98  A    between atoms: _252  and  _255
REMARK   99  A    between atoms: _255  and  _256
REMARK  100  A    between atoms: _261  and  _263
REMARK  101  A    between atoms: _263  and  _264
REMARK  102  A    between atoms: _263  and  _266
REMARK  103  A    between atoms: _266  and  _267
REMARK  104  A    between atoms: _270  and  _272
REMARK  105  A    between atoms: _272  and  _273
REMARK  106  A    between atoms: _272  and  _275
REMARK  107  A    between atoms: _278  and  _280
REMARK  108  A    between atoms: _280  and  _281
REMARK  109  A    between atoms: _280  and  _283
REMARK  110  A    between atoms: _283  and  _284
REMARK  111  A    between atoms: _287  and  _289
REMARK  112  A    between atoms: _289  and  _290
REMARK  113  A    between atoms: _289  and  _292
REMARK  114  A    between atoms: _292  and  _293
REMARK  115  A    between atoms: _293  and  _294
REMARK  116  A    between atoms: _297  and  _299
REMARK  117  A    between atoms: _299  and  _300
REMARK  118  A    between atoms: _303  and  _305
REMARK  119  A    between atoms: _305  and  _306
REMARK  120  A    between atoms: _305  and  _308
REMARK  121  A    between atoms: _308  and  _309
REMARK  122  A    between atoms: _312  and  _314
REMARK  123  A    between atoms: _314  and  _315
REMARK  124  A    between atoms: _314  and  _317
REMARK  125  A    between atoms: _317  and  _318
REMARK  126  A    between atoms: _318  and  _319
REMARK  127  A    between atoms: _322  and  _324
REMARK  128  A    between atoms: _324  and  _325
REMARK  129  A    between atoms: _324  and  _327
REMARK  130  A    between atoms: _327  and  _328
REMARK  131  A    between atoms: _333  and  _335
REMARK  132  A    between atoms: _335  and  _336
REMARK  133  A    between atoms: _338  and  _340
REMARK  134  A    between atoms: _340  and  _341
REMARK  135  A    between atoms: _340  and  _343
REMARK  136  A    between atoms: _346  and  _348
REMARK  137  A    between atoms: _348  and  _349
REMARK  138  A    between atoms: _352  and  _354
REMARK  139  A    between atoms: _354  and  _355
REMARK  140  A    between atoms: _354  and  _357
REMARK  141  A    between atoms: _357  and  _358
REMARK  142  A    between atoms: _363  and  _365
REMARK  143  A    between atoms: _365  and  _366
REMARK  144  A    between atoms: _365  and  _368
REMARK  145  A    between atoms: _368  and  _369
REMARK  146  A    between atoms: _369  and  _370
REMARK  147  A    between atoms: _370  and  _371
REMARK  148  A    between atoms: _371  and  _372
REMARK  149  A    between atoms: _376  and  _378
REMARK  150  A    between atoms: _378  and  _379
REMARK  151  A    between atoms: _378  and  _381
REMARK  152  A    between atoms: _381  and  _382
REMARK  153  A    between atoms: _385  and  _387
REMARK  154  A    between atoms: _387  and  _388
REMARK  155  A    between atoms: _387  and  _390
REMARK  156  A    between atoms: _390  and  _391
REMARK  157  A    between atoms: _396  and  _398
REMARK  158  A    between atoms: _398  and  _399
REMARK  159  A    between atoms: _401  and  _403
REMARK  160  A    between atoms: _403  and  _404
REMARK  161  A    between atoms: _403  and  _406
REMARK  162  A    between atoms: _406  and  _407
REMARK  163  A    between atoms: _407  and  _408
REMARK  164  A    between atoms: _408  and  _409
REMARK  165  A    between atoms: _409  and  _410
REMARK  166  A    between atoms: _414  and  _416
REMARK  167  A    between atoms: _416  and  _417
REMARK  168  A    between atoms: _416  and  _419
REMARK  169  A    between atoms: _419  and  _420
REMARK  170  A    between atoms: _420  and  _421
REMARK  171  A    between atoms: _421  and  _422
REMARK  172  A    between atoms: _431  and  _433
REMARK  173  A    between atoms: _433  and  _434
REMARK  174  A    between atoms: _433  and  _436
REMARK  175  A    between atoms: _436  and  _437
REMARK  176  A    between atoms: _442  and  _444
REMARK  177  A    between atoms: _444  and  _445
REMARK  178  A    between atoms: _444  and  _447
REMARK  179  A    between atoms: _447  and  _448
REMARK  180  A    between atoms: _453  and  _454
REMARK  181  A    between atoms: _456  and  _458
REMARK  182  A    between atoms: _458  and  _459
REMARK  183  A    between atoms: _458  and  _461
REMARK  184  A    between atoms: _461  and  _462
REMARK  185  A    between atoms: _462  and  _463
REMARK  186  A    between atoms: _463  and  _464
REMARK  187  A    between atoms: _464  and  _465
REMARK  188  A    between atoms: _469  and  _471
REMARK  189  A    between atoms: _471  and  _472
REMARK  190  A    between atoms: _471  and  _474
REMARK  191  A    between atoms: _474  and  _475
REMARK  192  A    between atoms: _477  and  _479
REMARK  193  A    between atoms: _479  and  _480
REMARK  194  A    between atoms: _479  and  _482
REMARK  195  A    between atoms: _482  and  _483
REMARK  196  A    between atoms: _486  and  _488
REMARK  197  A    between atoms: _488  and  _489
REMARK  198  A    between atoms: _488  and  _491
REMARK  199  A    between atoms: _491  and  _492
REMARK  200  A    between atoms: _492  and  _493
REMARK  201  A    between atoms: _496  and  _498
REMARK  202  A    between atoms: _498  and  _499
REMARK  203  A    between atoms: _502  and  _504
REMARK  204  A    between atoms: _504  and  _505
REMARK  205  A    between atoms: _504  and  _507
REMARK  206  A    between atoms: _507  and  _508
REMARK  207  A    between atoms: _510  and  _512
REMARK  208  A    between atoms: _512  and  _513
REMARK  209  A    between atoms: _515  and  _517
REMARK  210  A    between atoms: _517  and  _518
REMARK  211  A    between atoms: _517  and  _520
REMARK  212  A    between atoms: _520  and  _521
REMARK  213  A    between atoms: _524  and  _526
REMARK  214  A    between atoms: _526  and  _527
REMARK  215  A    between atoms: _529  and  _531
REMARK  216  A    between atoms: _531  and  _532
REMARK  217  A    between atoms: _531  and  _534
REMARK  218  A    between atoms: _534  and  _535
REMARK  219  A    between atoms: _540  and  _542
REMARK  220  A    between atoms: _542  and  _543
REMARK  221  A    between atoms: _542  and  _545
REMARK  222  A    between atoms: _545  and  _546
REMARK  223  A    between atoms: _546  and  _547
REMARK  224  A    between atoms: _554  and  _555
REMARK  225  A    between atoms: _555  and  _571
REMARK  226  A    between atoms: _556  and  _558
REMARK  227  A    between atoms: _558  and  _559
REMARK  228  A    between atoms: _559  and  _560
REMARK  229  A    between atoms: _564  and  _566
REMARK  230  A    between atoms: _566  and  _567
REMARK  231  A    between atoms: _566  and  _574
REMARK  232  A    between atoms: _567  and  _568
REMARK  233  A    between atoms: _568  and  _569
REMARK  234  A    between atoms: _569  and  _570
REMARK  235  A    between atoms: _570  and  _571
REMARK  236  A    between atoms: _576  and  _578
REMARK  237  A    between atoms: _578  and  _579
REMARK  238  A    between atoms: _578  and  _581
REMARK  239  A    between atoms: _581  and  _582
REMARK  240  A    between atoms: _585  and  _587
REMARK  241  A    between atoms: _587  and  _588
REMARK  242  A    between atoms: _590  and  _592
REMARK  243  A    between atoms: _592  and  _593
REMARK  244  A    between atoms: _596  and  _598
REMARK  245  A    between atoms: _598  and  _599
REMARK  246  A    between atoms: _598  and  _601
REMARK  247  A    between atoms: _601  and  _602
REMARK  248  A    between atoms: _607  and  _608
REMARK                            x       y       z     vdW  Elec       q    Type
REMARK                         _______ _______ _______ _____ _____    ______ ____
ROOT
ATOM      1  C   GLY A   2      37.987  14.486  23.514  0.00  0.00    +0.243 C 
ATOM      2  O   GLY A   2      37.647  13.305  23.684  0.00  0.00    -0.273 OA
ATOM      3  N   VAL A   3      37.122  15.455  23.243  0.00  0.00    -0.297 N 
ATOM      4  H   VAL A   3      37.472  16.356  22.860  0.00  0.00    +0.150 HD
ENDROOT
BRANCH   1   5
ATOM      5  CA  GLY A   2      39.449  14.893  23.576  0.00  0.00    +0.176 C 
BRANCH   5   8
ATOM      6  C   ASN A   1      40.558  13.363  25.115  0.00  0.00    +0.239 C 
ATOM      7  O   ASN A   1      40.483  14.130  26.075  0.00  0.00    -0.274 OA
ATOM      8  N   GLY A   2      40.233  13.706  23.872  0.00  0.00    -0.296 N 
ATOM      9  H   GLY A   2      40.551  13.104  23.085  0.00  0.00    +0.150 HD
BRANCH   6  10
ATOM     10  CA  ASN A   1      41.072  11.944  25.282  0.00  0.00    +0.154 C 
BRANCH  10  11
ATOM     11  N   ASN A   1      42.085  11.805  26.310  0.00  0.00    -0.238 NA
ATOM     12  H   ASN A   1      41.926  12.208  27.255  0.00  0.00    +0.142 HD
ENDBRANCH  10  11
BRANCH  10  13
ATOM     13  CB  ASN A   1      39.910  10.955  25.505  0.00  0.00    +0.111 C 
BRANCH  13  14
ATOM     14  CG  ASN A   1      38.977  11.382  26.623  0.00  0.00    +0.221 C 
ATOM     15  OD1 ASN A   1      39.288  11.229  27.799  0.00  0.00    -0.275 OA
ATOM     16  ND2 ASN A   1      37.818  11.908  26.253  0.00  0.00    -0.329 N 
ATOM     17 HD21 ASN A   1      37.130  12.210  26.973  0.00  0.00    +0.145 HD
ATOM     18 HD22 ASN A   1      37.596  12.019  25.243  0.00  0.00    +0.145 HD
ENDBRANCH  13  14
ENDBRANCH  10  13
ENDBRANCH   6  10
ENDBRANCH   5   8
ENDBRANCH   1   5
BRANCH   3  19
ATOM     19  CA  VAL A   3      35.689  15.284  23.471  0.00  0.00    +0.149 C 
BRANCH  19  20
ATOM     20  C   VAL A   3      34.842  15.399  22.201  0.00  0.00    +0.241 C 
ATOM     21  O   VAL A   3      33.618  15.442  22.267  0.00  0.00    -0.273 OA
ATOM     22  N   ALA A   4      35.522  15.458  21.057  0.00  0.00    -0.298 N 
ATOM     23  H   ALA A   4      36.554  15.572  21.113  0.00  0.00    +0.150 HD
BRANCH  22  24
ATOM     24  CA  ALA A   4      34.918  15.373  19.728  0.00  0.00    +0.137 C 
ATOM     25  CB  ALA A   4      34.190  16.654  19.365  0.00  0.00    +0.030 C 
BRANCH  24  26
ATOM     26  C   ALA A   4      36.052  15.111  18.747  0.00  0.00    +0.227 C 
ATOM     27  O   ALA A   4      37.194  15.517  18.988  0.00  0.00    -0.286 OA
ENDBRANCH  24  26
ENDBRANCH  22  24
ENDBRANCH  19  20
BRANCH  19  28
ATOM     28  CB  VAL A   3      35.183  16.252  24.569  0.00  0.00    +0.027 C 
ATOM     29  CG2 VAL A   3      35.733  15.843  25.934  0.00  0.00    +0.002 C 
ATOM     30  CG1 VAL A   3      35.561  17.695  24.248  0.00  0.00    +0.002 C 
ENDBRANCH  19  28
ENDBRANCH   3  19
TORSDOF 11
REMARK  Name = ../refined-set-2016/3g2n/3g2n_pocket.pdb
REMARK  248 active torsions:
REMARK  status: ('A' for Active; 'I' for Inactive)
REMARK    1  A    between atoms: _1  and  _3
REMARK    2  A    between atoms: _3  and  _4
REMARK    3  A    between atoms: _3  and  _6
REMARK    4  A    between atoms: _6  and  _7
REMARK    5  A    between atoms: _12  and  _13
REMARK    6  A    between atoms: _15  and  _17
REMARK    7  A    between atoms: _17  and  _18
REMARK    8  A    between atoms: _17  and  _20
REMARK    9  A    between atoms: _20  and  _21
REMARK   10  A    between atoms: _21  and  _22
REMARK   11  A    between atoms: _25  and  _27
REMARK   12  A    between atoms: _27  and  _28
REMARK   13  A    between atoms: _27  and  _30
REMARK   14  A    between atoms: _30  and  _31
REMARK   15  A    between atoms: _36  and  _38
REMARK   16  A    between atoms: _38  and  _39
REMARK   17  A    between atoms: _41  and  _43
REMARK   18  A    between atoms: _43  and  _44
REMARK   19  A    between atoms: _46  and  _48
REMARK   20  A    between atoms: _48  and  _49
REMARK   21  A    between atoms: _48  and  _51
REMARK   22  A    between atoms: _51  and  _52
REMARK   23  A    between atoms: _55  and  _57
REMARK   24  A    between atoms: _57  and  _58
REMARK   25  A    between atoms: _60  and  _62
REMARK   26  A    between atoms: _62  and  _63
REMARK   27  A    between atoms: _62  and  _65
REMARK   28  A    between atoms: _65  and  _66
REMARK   29  A    between atoms: _66  and  _67
REMARK   30  A    between atoms: _67  and  _68
REMARK   31  A    between atoms: _77  and  _79
REMARK   32  A    between atoms: _79  and  _80
REMARK   33  A    between atoms: _79  and  _82
REMARK   34  A    between atoms: _82  and  _83
REMARK   35  A    between atoms: _86  and  _88
REMARK   36  A    between atoms: _88  and  _89
REMARK   37  A    between atoms: _92  and  _94
REMARK   38  A    between atoms: _94  and  _95
REMARK   39  A    between atoms: _94  and  _97
REMARK   40  A    between atoms: _97  and  _98
REMARK   41  A    between atoms: _104  and  _106
REMARK   42  A    between atoms: _106  and  _107
REMARK   43  A    between atoms: _106  and  _109
REMARK   44  A    between atoms: _109  and  _110
REMARK   45  A    between atoms: _115  and  _117
REMARK   46  A    between atoms: _117  and  _118
REMARK   47  A    between atoms: _117  and  _120
REMARK   48  A    between atoms: _120  and  _121
REMARK   49  A    between atoms: _124  and  _126
REMARK   50  A    between atoms: _126  and  _127
REMARK   51  A    between atoms: _126  and  _129
REMARK   52  A    between atoms: _129  and  _130
REMARK   53  A    between atoms: _135  and  _137
REMARK   54  A    between atoms: _137  and  _138
REMARK   55  A    between atoms: _137  and  _140
REMARK   56  A    between atoms: _140  and  _141
REMARK   57  A    between atoms: _147  and  _149
REMARK   58  A    between atoms: _149  and  _150
REMARK   59  A    between atoms: _149  and  _152
REMARK   60  A    between atoms: _152  and  _153
REMARK   61  A    between atoms: _159  and  _161
REMARK   62  A    between atoms: _161  and  _162
REMARK   63  A    between atoms: _161  and  _164
REMARK   64  A    between atoms: _164  and  _165
REMARK   65  A    between atoms: _165  and  _166
REMARK   66  A    between atoms: _166  and  _167
REMARK   67  A    between atoms: _176  and  _178
REMARK   68  A    between atoms: _178  and  _179
REMARK   69  A    between atoms: _178  and  _181
REMARK   70  A    between atoms: _181  and  _182
REMARK   71  A    between atoms: _187  and  _189
REMARK   72  A    between atoms: _189  and  _190
REMARK   73  A    between atoms: _189  and  _192
REMARK   74  A    between atoms: _192  and  _193
REMARK   75  A    between atoms: _196  and  _198
REMARK   76  A    between atoms: _198  and  _199
REMARK   77  A    between atoms: _198  and  _201
REMARK   78  A    between atoms: _201  and  _202
REMARK   79  A    between atoms: _205  and  _207
REMARK   80  A    between atoms: _207  and  _208
REMARK   81  A    between atoms: _207  and  _210
REMARK   82  A    between atoms: _210  and  _211
REMARK   83  A    between atoms: _216  and  _218
REMARK   84  A    between atoms: _218  and  _219
REMARK   85  A    between atoms: _218  and  _221
REMARK   86  A    between atoms: _221  and  _222
REMARK   87  A    between atoms: _227  and  _228
REMARK   88  A    between atoms: _230  and  _232
REMARK   89  A    between atoms: _232  and  _233
REMARK   90  A    between atoms: _232  and  _235
REMARK   91  A    between atoms: _235  and  _236
REMARK   92  A    between atoms: _239  and  _241
REMARK   93  A    between atoms: _241  and  _242
REMARK   94  A    between atoms: _241  and  _244
REMARK   95  A    between atoms: _244  and  _245
REMARK   96  A    between atoms: _250  and  _252
REMARK   97  A    between atoms: _252  and  _253
REMARK   98  A    between atoms: _252  and  _255
REMARK   99  A    between atoms: _255  and  _256
REMARK  100  A    between atoms: _261  and  _263
REMARK  101  A    between atoms: _263  and  _264
REMARK  102  A    between atoms: _263  and  _266
REMARK  103  A    between atoms: _266  and  _267
REMARK  104  A    between atoms: _270  and  _272
REMARK  105  A    between atoms: _272  and  _273
REMARK  106  A    between atoms: _272  and  _275
REMARK  107  A    between atoms: _278  and  _280
REMARK  108  A    between atoms: _280  and  _281
REMARK  109  A    between atoms: _280  and  _283
REMARK  110  A    between atoms: _283  and  _284
REMARK  111  A    between atoms: _287  and  _289
REMARK  112  A    between atoms: _289  and  _290
REMARK  113  A    between atoms: _289  and  _292
REMARK  114  A    between atoms: _292  and  _293
REMARK  115  A    between atoms: _293  and  _294
REMARK  116  A    between atoms: _297  and  _299
REMARK  117  A    between atoms: _299  and  _300
REMARK  118  A    between atoms: _303  and  _305
REMARK  119  A    between atoms: _305  and  _306
REMARK  120  A    between atoms: _305  and  _308
REMARK  121  A    between atoms: _308  and  _309
REMARK  122  A    between atoms: _312  and  _314
REMARK  123  A    between atoms: _314  and  _315
REMARK  124  A    between atoms: _314  and  _317
REMARK  125  A    between atoms: _317  and  _318
REMARK  126  A    between atoms: _318  and  _319
REMARK  127  A    between atoms: _322  and  _324
REMARK  128  A    between atoms: _324  and  _325
REMARK  129  A    between atoms: _324  and  _327
REMARK  130  A    between atoms: _327  and  _328
REMARK  131  A    between atoms: _333  and  _335
REMARK  132  A    between atoms: _335  and  _336
REMARK  133  A    between atoms: _338  and  _340
REMARK  134  A    between atoms: _340  and  _341
REMARK  135  A    between atoms: _340  and  _343
REMARK  136  A    between atoms: _346  and  _348
REMARK  137  A    between atoms: _348  and  _349
REMARK  138  A    between atoms: _352  and  _354
REMARK  139  A    between atoms: _354  and  _355
REMARK  140  A    between atoms: _354  and  _357
REMARK  141  A    between atoms: _357  and  _358
REMARK  142  A    between atoms: _363  and  _365
REMARK  143  A    between atoms: _365  and  _366
REMARK  144  A    between atoms: _365  and  _368
REMARK  145  A    between atoms: _368  and  _369
REMARK  146  A    between atoms: _369  and  _370
REMARK  147  A    between atoms: _370  and  _371
REMARK  148  A    between atoms: _371  and  _372
REMARK  149  A    between atoms: _376  and  _378
REMARK  150  A    between atoms: _378  and  _379
REMARK  151  A    between atoms: _378  and  _381
REMARK  152  A    between atoms: _381  and  _382
REMARK  153  A    between atoms: _385  and  _387
REMARK  154  A    between atoms: _387  and  _388
REMARK  155  A    between atoms: _387  and  _390
REMARK  156  A    between atoms: _390  and  _391
REMARK  157  A    between atoms: _396  and  _398
REMARK  158  A    between atoms: _398  and  _399
REMARK  159  A    between atoms: _401  and  _403
REMARK  160  A    between atoms: _403  and  _404
REMARK  161  A    between atoms: _403  and  _406
REMARK  162  A    between atoms: _406  and  _407
REMARK  163  A    between atoms: _407  and  _408
REMARK  164  A    between atoms: _408  and  _409
REMARK  165  A    between atoms: _409  and  _410
REMARK  166  A    between atoms: _414  and  _416
REMARK  167  A    between atoms: _416  and  _417
REMARK  168  A    between atoms: _416  and  _419
REMARK  169  A    between atoms: _419  and  _420
REMARK  170  A    between atoms: _420  and  _421
REMARK  171  A    between atoms: _421  and  _422
REMARK  172  A    between atoms: _431  and  _433
REMARK  173  A    between atoms: _433  and  _434
REMARK  174  A    between atoms: _433  and  _436
REMARK  175  A    between atoms: _436  and  _437
REMARK  176  A    between atoms: _442  and  _444
REMARK  177  A    between atoms: _444  and  _445
REMARK  178  A    between atoms: _444  and  _447
REMARK  179  A    between atoms: _447  and  _448
REMARK  180  A    between atoms: _453  and  _454
REMARK  181  A    between atoms: _456  and  _458
REMARK  182  A    between atoms: _458  and  _459
REMARK  183  A    between atoms: _458  and  _461
REMARK  184  A    between atoms: _461  and  _462
REMARK  185  A    between atoms: _462  and  _463
REMARK  186  A    between atoms: _463  and  _464
REMARK  187  A    between atoms: _464  and  _465
REMARK  188  A    between atoms: _469  and  _471
REMARK  189  A    between atoms: _471  and  _472
REMARK  190  A    between atoms: _471  and  _474
REMARK  191  A    between atoms: _474  and  _475
REMARK  192  A    between atoms: _477  and  _479
REMARK  193  A    between atoms: _479  and  _480
REMARK  194  A    between atoms: _479  and  _482
REMARK  195  A    between atoms: _482  and  _483
REMARK  196  A    between atoms: _486  and  _488
REMARK  197  A    between atoms: _488  and  _489
REMARK  198  A    between atoms: _488  and  _491
REMARK  199  A    between atoms: _491  and  _492
REMARK  200  A    between atoms: _492  and  _493
REMARK  201  A    between atoms: _496  and  _498
REMARK  202  A    between atoms: _498  and  _499
REMARK  203  A    between atoms: _502  and  _504
REMARK  204  A    between atoms: _504  and  _505
REMARK  205  A    between atoms: _504  and  _507
REMARK  206  A    between atoms: _507  and  _508
REMARK  207  A    between atoms: _510  and  _512
REMARK  208  A    between atoms: _512  and  _513
REMARK  209  A    between atoms: _515  and  _517
REMARK  210  A    between atoms: _517  and  _518
REMARK  211  A    between atoms: _517  and  _520
REMARK  212  A    between atoms: _520  and  _521
REMARK  213  A    between atoms: _524  and  _526
REMARK  214  A    between atoms: _526  and  _527
REMARK  215  A    between atoms: _529  and  _531
REMARK  216  A    between atoms: _531  and  _532
REMARK  217  A    between atoms: _531  and  _534
REMARK  218  A    between atoms: _534  and  _535
REMARK  219  A    between atoms: _540  and  _542
REMARK  220  A    between atoms: _542  and  _543
REMARK  221  A    between atoms: _542  and  _545
REMARK  222  A    between atoms: _545  and  _546
REMARK  223  A    between atoms: _546  and  _547
REMARK  224  A    between atoms: _554  and  _555
REMARK  225  A    between atoms: _555  and  _571
REMARK  226  A    between atoms: _556  and  _558
REMARK  227  A    between atoms: _558  and  _559
REMARK  228  A    between atoms: _559  and  _560
REMARK  229  A    between atoms: _564  and  _566
REMARK  230  A    between atoms: _566  and  _567
REMARK  231  A    between atoms: _566  and  _574
REMARK  232  A    between atoms: _567  and  _568
REMARK  233  A    between atoms: _568  and  _569
REMARK  234  A    between atoms: _569  and  _570
REMARK  235  A    between atoms: _570  and  _571
REMARK  236  A    between atoms: _576  and  _578
REMARK  237  A    between atoms: _578  and  _579
REMARK  238  A    between atoms: _578  and  _581
REMARK  239  A    between atoms: _581  and  _582
REMARK  240  A    between atoms: _585  and  _587
REMARK  241  A    between atoms: _587  and  _588
REMARK  242  A    between atoms: _590  and  _592
REMARK  243  A    between atoms: _592  and  _593
REMARK  244  A    between atoms: _596  and  _598
REMARK  245  A    between atoms: _598  and  _599
REMARK  246  A    between atoms: _598  and  _601
REMARK  247  A    between atoms: _601  and  _602
REMARK  248  A    between atoms: _607  and  _608
REMARK                            x       y       z     vdW  Elec       q    Type
REMARK                         _______ _______ _______ _____ _____    ______ ____
ROOT
ATOM      1  CB  HIS A   1      38.129  18.562  20.145  0.00  0.00    +0.072 C 
ENDROOT
BRANCH   1   2
ATOM      2  CG  HIS A   1      38.798  18.747  21.473  0.00  0.00    +0.082 A 
ATOM      3  CD2 HIS A   1      38.741  18.011  22.606  0.00  0.00    +0.115 A 
ATOM      4  NE2 HIS A   1      39.544  18.629  23.533  0.00  0.00    -0.221 NA
ATOM      5  CE1 HIS A   1      40.068  19.713  22.993  0.00  0.00    +0.199 A 
ATOM      6  ND1 HIS A   1      39.630  19.811  21.751  0.00  0.00    -0.227 NA
ENDBRANCH   1   2
BRANCH   1   7
ATOM      7  CA  HIS A   1      39.098  18.412  18.962  0.00  0.00    +0.139 C 
BRANCH   7   8
ATOM      8  N   HIS A   1      38.373  17.954  17.773  0.00  0.00    -0.239 NA
ATOM      9  H   HIS A   1      37.390  17.635  17.886  0.00  0.00    +0.142 HD
ENDBRANCH   7   8
BRANCH   7  10
ATOM     10  C   HIS A   1      40.250  17.451  19.280  0.00  0.00    +0.224 C 
ATOM     11  O   HIS A   1      41.392  17.886  19.432  0.00  0.00    -0.287 OA
ENDBRANCH   7  10
ENDBRANCH   1   7
TORSDOF 4
REMARK  Name = ../refined-set-2016/3g2n/3g2n_pocket.pdb
REMARK  248 active torsions:
REMARK  status: ('A' for Active; 'I' for Inactive)
REMARK    1  A    between atoms: _1  and  _3
REMARK    2  A    between atoms: _3  and  _4
REMARK    3  A    between atoms: _3  and  _6
REMARK    4  A    between atoms: _6  and  _7
REMARK    5  A    between atoms: _12  and  _13
REMARK    6  A    between atoms: _15  and  _17
REMARK    7  A    between atoms: _17  and  _18
REMARK    8  A    between atoms: _17  and  _20
REMARK    9  A    between atoms: _20  and  _21
REMARK   10  A    between atoms: _21  and  _22
REMARK   11  A    between atoms: _25  and  _27
REMARK   12  A    between atoms: _27  and  _28
REMARK   13  A    between atoms: _27  and  _30
REMARK   14  A    between atoms: _30  and  _31
REMARK   15  A    between atoms: _36  and  _38
REMARK   16  A    between atoms: _38  and  _39
REMARK   17  A    between atoms: _41  and  _43
REMARK   18  A    between atoms: _43  and  _44
REMARK   19  A    between atoms: _46  and  _48
REMARK   20  A    between atoms: _48  and  _49
REMARK   21  A    between atoms: _48  and  _51
REMARK   22  A    between atoms: _51  and  _52
REMARK   23  A    between atoms: _55  and  _57
REMARK   24  A    between atoms: _57  and  _58
REMARK   25  A    between atoms: _60  and  _62
REMARK   26  A    between atoms: _62  and  _63
REMARK   27  A    between atoms: _62  and  _65
REMARK   28  A    between atoms: _65  and  _66
REMARK   29  A    between atoms: _66  and  _67
REMARK   30  A    between atoms: _67  and  _68
REMARK   31  A    between atoms: _77  and  _79
REMARK   32  A    between atoms: _79  and  _80
REMARK   33  A    between atoms: _79  and  _82
REMARK   34  A    between atoms: _82  and  _83
REMARK   35  A    between atoms: _86  and  _88
REMARK   36  A    between atoms: _88  and  _89
REMARK   37  A    between atoms: _92  and  _94
REMARK   38  A    between atoms: _94  and  _95
REMARK   39  A    between atoms: _94  and  _97
REMARK   40  A    between atoms: _97  and  _98
REMARK   41  A    between atoms: _104  and  _106
REMARK   42  A    between atoms: _106  and  _107
REMARK   43  A    between atoms: _106  and  _109
REMARK   44  A    between atoms: _109  and  _110
REMARK   45  A    between atoms: _115  and  _117
REMARK   46  A    between atoms: _117  and  _118
REMARK   47  A    between atoms: _117  and  _120
REMARK   48  A    between atoms: _120  and  _121
REMARK   49  A    between atoms: _124  and  _126
REMARK   50  A    between atoms: _126  and  _127
REMARK   51  A    between atoms: _126  and  _129
REMARK   52  A    between atoms: _129  and  _130
REMARK   53  A    between atoms: _135  and  _137
REMARK   54  A    between atoms: _137  and  _138
REMARK   55  A    between atoms: _137  and  _140
REMARK   56  A    between atoms: _140  and  _141
REMARK   57  A    between atoms: _147  and  _149
REMARK   58  A    between atoms: _149  and  _150
REMARK   59  A    between atoms: _149  and  _152
REMARK   60  A    between atoms: _152  and  _153
REMARK   61  A    between atoms: _159  and  _161
REMARK   62  A    between atoms: _161  and  _162
REMARK   63  A    between atoms: _161  and  _164
REMARK   64  A    between atoms: _164  and  _165
REMARK   65  A    between atoms: _165  and  _166
REMARK   66  A    between atoms: _166  and  _167
REMARK   67  A    between atoms: _176  and  _178
REMARK   68  A    between atoms: _178  and  _179
REMARK   69  A    between atoms: _178  and  _181
REMARK   70  A    between atoms: _181  and  _182
REMARK   71  A    between atoms: _187  and  _189
REMARK   72  A    between atoms: _189  and  _190
REMARK   73  A    between atoms: _189  and  _192
REMARK   74  A    between atoms: _192  and  _193
REMARK   75  A    between atoms: _196  and  _198
REMARK   76  A    between atoms: _198  and  _199
REMARK   77  A    between atoms: _198  and  _201
REMARK   78  A    between atoms: _201  and  _202
REMARK   79  A    between atoms: _205  and  _207
REMARK   80  A    between atoms: _207  and  _208
REMARK   81  A    between atoms: _207  and  _210
REMARK   82  A    between atoms: _210  and  _211
REMARK   83  A    between atoms: _216  and  _218
REMARK   84  A    between atoms: _218  and  _219
REMARK   85  A    between atoms: _218  and  _221
REMARK   86  A    between atoms: _221  and  _222
REMARK   87  A    between atoms: _227  and  _228
REMARK   88  A    between atoms: _230  and  _232
REMARK   89  A    between atoms: _232  and  _233
REMARK   90  A    between atoms: _232  and  _235
REMARK   91  A    between atoms: _235  and  _236
REMARK   92  A    between atoms: _239  and  _241
REMARK   93  A    between atoms: _241  and  _242
REMARK   94  A    between atoms: _241  and  _244
REMARK   95  A    between atoms: _244  and  _245
REMARK   96  A    between atoms: _250  and  _252
REMARK   97  A    between atoms: _252  and  _253
REMARK   98  A    between atoms: _252  and  _255
REMARK   99  A    between atoms: _255  and  _256
REMARK  100  A    between atoms: _261  and  _263
REMARK  101  A    between atoms: _263  and  _264
REMARK  102  A    between atoms: _263  and  _266
REMARK  103  A    between atoms: _266  and  _267
REMARK  104  A    between atoms: _270  and  _272
REMARK  105  A    between atoms: _272  and  _273
REMARK  106  A    between atoms: _272  and  _275
REMARK  107  A    between atoms: _278  and  _280
REMARK  108  A    between atoms: _280  and  _281
REMARK  109  A    between atoms: _280  and  _283
REMARK  110  A    between atoms: _283  and  _284
REMARK  111  A    between atoms: _287  and  _289
REMARK  112  A    between atoms: _289  and  _290
REMARK  113  A    between atoms: _289  and  _292
REMARK  114  A    between atoms: _292  and  _293
REMARK  115  A    between atoms: _293  and  _294
REMARK  116  A    between atoms: _297  and  _299
REMARK  117  A    between atoms: _299  and  _300
REMARK  118  A    between atoms: _303  and  _305
REMARK  119  A    between atoms: _305  and  _306
REMARK  120  A    between atoms: _305  and  _308
REMARK  121  A    between atoms: _308  and  _309
REMARK  122  A    between atoms: _312  and  _314
REMARK  123  A    between atoms: _314  and  _315
REMARK  124  A    between atoms: _314  and  _317
REMARK  125  A    between atoms: _317  and  _318
REMARK  126  A    between atoms: _318  and  _319
REMARK  127  A    between atoms: _322  and  _324
REMARK  128  A    between atoms: _324  and  _325
REMARK  129  A    between atoms: _324  and  _327
REMARK  130  A    between atoms: _327  and  _328
REMARK  131  A    between atoms: _333  and  _335
REMARK  132  A    between atoms: _335  and  _336
REMARK  133  A    between atoms: _338  and  _340
REMARK  134  A    between atoms: _340  and  _341
REMARK  135  A    between atoms: _340  and  _343
REMARK  136  A    between atoms: _346  and  _348
REMARK  137  A    between atoms: _348  and  _349
REMARK  138  A    between atoms: _352  and  _354
REMARK  139  A    between atoms: _354  and  _355
REMARK  140  A    between atoms: _354  and  _357
REMARK  141  A    between atoms: _357  and  _358
REMARK  142  A    between atoms: _363  and  _365
REMARK  143  A    between atoms: _365  and  _366
REMARK  144  A    between atoms: _365  and  _368
REMARK  145  A    between atoms: _368  and  _369
REMARK  146  A    between atoms: _369  and  _370
REMARK  147  A    between atoms: _370  and  _371
REMARK  148  A    between atoms: _371  and  _372
REMARK  149  A    between atoms: _376  and  _378
REMARK  150  A    between atoms: _378  and  _379
REMARK  151  A    between atoms: _378  and  _381
REMARK  152  A    between atoms: _381  and  _382
REMARK  153  A    between atoms: _385  and  _387
REMARK  154  A    between atoms: _387  and  _388
REMARK  155  A    between atoms: _387  and  _390
REMARK  156  A    between atoms: _390  and  _391
REMARK  157  A    between atoms: _396  and  _398
REMARK  158  A    between atoms: _398  and  _399
REMARK  159  A    between atoms: _401  and  _403
REMARK  160  A    between atoms: _403  and  _404
REMARK  161  A    between atoms: _403  and  _406
REMARK  162  A    between atoms: _406  and  _407
REMARK  163  A    between atoms: _407  and  _408
REMARK  164  A    between atoms: _408  and  _409
REMARK  165  A    between atoms: _409  and  _410
REMARK  166  A    between atoms: _414  and  _416
REMARK  167  A    between atoms: _416  and  _417
REMARK  168  A    between atoms: _416  and  _419
REMARK  169  A    between atoms: _419  and  _420
REMARK  170  A    between atoms: _420  and  _421
REMARK  171  A    between atoms: _421  and  _422
REMARK  172  A    between atoms: _431  and  _433
REMARK  173  A    between atoms: _433  and  _434
REMARK  174  A    between atoms: _433  and  _436
REMARK  175  A    between atoms: _436  and  _437
REMARK  176  A    between atoms: _442  and  _444
REMARK  177  A    between atoms: _444  and  _445
REMARK  178  A    between atoms: _444  and  _447
REMARK  179  A    between atoms: _447  and  _448
REMARK  180  A    between atoms: _453  and  _454
REMARK  181  A    between atoms: _456  and  _458
REMARK  182  A    between atoms: _458  and  _459
REMARK  183  A    between atoms: _458  and  _461
REMARK  184  A    between atoms: _461  and  _462
REMARK  185  A    between atoms: _462  and  _463
REMARK  186  A    between atoms: _463  and  _464
REMARK  187  A    between atoms: _464  and  _465
REMARK  188  A    between atoms: _469  and  _471
REMARK  189  A    between atoms: _471  and  _472
REMARK  190  A    between atoms: _471  and  _474
REMARK  191  A    between atoms: _474  and  _475
REMARK  192  A    between atoms: _477  and  _479
REMARK  193  A    between atoms: _479  and  _480
REMARK  194  A    between atoms: _479  and  _482
REMARK  195  A    between atoms: _482  and  _483
REMARK  196  A    between atoms: _486  and  _488
REMARK  197  A    between atoms: _488  and  _489
REMARK  198  A    between atoms: _488  and  _491
REMARK  199  A    between atoms: _491  and  _492
REMARK  200  A    between atoms: _492  and  _493
REMARK  201  A    between atoms: _496  and  _498
REMARK  202  A    between atoms: _498  and  _499
REMARK  203  A    between atoms: _502  and  _504
REMARK  204  A    between atoms: _504  and  _505
REMARK  205  A    between atoms: _504  and  _507
REMARK  206  A    between atoms: _507  and  _508
REMARK  207  A    between atoms: _510  and  _512
REMARK  208  A    between atoms: _512  and  _513
REMARK  209  A    between atoms: _515  and  _517
REMARK  210  A    between atoms: _517  and  _518
REMARK  211  A    between atoms: _517  and  _520
REMARK  212  A    between atoms: _520  and  _521
REMARK  213  A    between atoms: _524  and  _526
REMARK  214  A    between atoms: _526  and  _527
REMARK  215  A    between atoms: _529  and  _531
REMARK  216  A    between atoms: _531  and  _532
REMARK  217  A    between atoms: _531  and  _534
REMARK  218  A    between atoms: _534  and  _535
REMARK  219  A    between atoms: _540  and  _542
REMARK  220  A    between atoms: _542  and  _543
REMARK  221  A    between atoms: _542  and  _545
REMARK  222  A    between atoms: _545  and  _546
REMARK  223  A    between atoms: _546  and  _547
REMARK  224  A    between atoms: _554  and  _555
REMARK  225  A    between atoms: _555  and  _571
REMARK  226  A    between atoms: _556  and  _558
REMARK  227  A    between atoms: _558  and  _559
REMARK  228  A    between atoms: _559  and  _560
REMARK  229  A    between atoms: _564  and  _566
REMARK  230  A    between atoms: _566  and  _567
REMARK  231  A    between atoms: _566  and  _574
REMARK  232  A    between atoms: _567  and  _568
REMARK  233  A    between atoms: _568  and  _569
REMARK  234  A    between atoms: _569  and  _570
REMARK  235  A    between atoms: _570  and  _571
REMARK  236  A    between atoms: _576  and  _578
REMARK  237  A    between atoms: _578  and  _579
REMARK  238  A    between atoms: _578  and  _581
REMARK  239  A    between atoms: _581  and  _582
REMARK  240  A    between atoms: _585  and  _587
REMARK  241  A    between atoms: _587  and  _588
REMARK  242  A    between atoms: _590  and  _592
REMARK  243  A    between atoms: _592  and  _593
REMARK  244  A    between atoms: _596  and  _598
REMARK  245  A    between atoms: _598  and  _599
REMARK  246  A    between atoms: _598  and  _601
REMARK  247  A    between atoms: _601  and  _602
REMARK  248  A    between atoms: _607  and  _608
REMARK                            x       y       z     vdW  Elec       q    Type
REMARK                         _______ _______ _______ _____ _____    ______ ____
ROOT
ATOM      1  CA  THR A   2      32.751  12.323  21.452  0.00  0.00    +0.176 C 
ENDROOT
BRANCH   1   4
ATOM      2  C   LYS A   1      34.437  11.287  22.871  0.00  0.00    +0.238 C 
ATOM      3  O   LYS A   1      34.378  12.199  23.699  0.00  0.00    -0.274 OA
ATOM      4  N   THR A   2      33.716  11.273  21.755  0.00  0.00    -0.295 N 
ATOM      5  H   THR A   2      33.843  10.492  21.080  0.00  0.00    +0.150 HD
BRANCH   2   6
ATOM      6  CA  LYS A   1      35.391  10.122  23.065  0.00  0.00    +0.145 C 
BRANCH   6   7
ATOM      7  N   LYS A   1      36.673  10.548  22.539  0.00  0.00    -0.238 NA
ATOM      8  H   LYS A   1      36.989  11.523  22.717  0.00  0.00    +0.142 HD
ENDBRANCH   6   7
BRANCH   6   9
ATOM      9  CB  LYS A   1      35.489   9.742  24.553  0.00  0.00    +0.026 C 
BRANCH   9  10
ATOM     10  CG  LYS A   1      36.427   8.576  24.873  0.00  0.00    -0.000 C 
BRANCH  10  11
ATOM     11  CD  LYS A   1      35.821   7.225  24.497  0.00  0.00    -0.024 C 
BRANCH  11  12
ATOM     12  CE  LYS A   1      36.865   6.122  24.558  0.00  0.00    -0.086 C 
BRANCH  12  13
ATOM     13  NZ  LYS A   1      37.758   6.143  23.359  0.00  0.00    +0.380 N 
ATOM     14  HZ1 LYS A   1      38.457   5.377  23.436  0.00  0.00    -0.089 HD
ATOM     15  HZ2 LYS A   1      38.249   7.058  23.310  0.00  0.00    -0.089 HD
ATOM     16  HZ3 LYS A   1      37.187   6.008  22.500  0.00  0.00    -0.089 HD
ENDBRANCH  12  13
ENDBRANCH  11  12
ENDBRANCH  10  11
ENDBRANCH   9  10
ENDBRANCH   6   9
ENDBRANCH   2   6
ENDBRANCH   1   4
BRANCH   1  17
ATOM     17  C   THR A   2      31.691  12.394  22.550  0.00  0.00    +0.243 C 
ATOM     18  N   ASN A   3      31.445  13.615  23.016  0.00  0.00    -0.297 N 
ATOM     19  H   ASN A   3      31.958  14.414  22.592  0.00  0.00    +0.150 HD
ATOM     20  O   THR A   2      31.132  11.366  22.961  0.00  0.00    -0.273 OA
BRANCH  18  21
ATOM     21  CA  ASN A   3      30.498  13.896  24.087  0.00  0.00    +0.158 C 
BRANCH  21  22
ATOM     22  C   ASN A   3      29.081  13.438  23.749  0.00  0.00    +0.241 C 
ATOM     23  N   GLY A   4      28.235  13.386  24.769  0.00  0.00    -0.296 N 
ATOM     24  H   GLY A   4      28.593  13.579  25.726  0.00  0.00    +0.150 HD
ATOM     25  O   ASN A   3      28.771  13.130  22.597  0.00  0.00    -0.273 OA
BRANCH  23  26
ATOM     26  CA  GLY A   4      26.828  13.070  24.599  0.00  0.00    +0.163 C 
BRANCH  26  27
ATOM     27  C   GLY A   4      26.011  13.771  25.667  0.00  0.00    +0.229 C 
ATOM     28  O   GLY A   4      26.557  14.475  26.516  0.00  0.00    -0.286 OA
ENDBRANCH  26  27
ENDBRANCH  23  26
ENDBRANCH  21  22
BRANCH  21  29
ATOM     29  CB  ASN A   3      30.501  15.402  24.412  0.00  0.00    +0.114 C 
BRANCH  29  30
ATOM     30  CG  ASN A   3      31.670  15.821  25.318  0.00  0.00    +0.222 C 
ATOM     31  ND2 ASN A   3      32.338  14.849  25.922  0.00  0.00    -0.329 N 
ATOM     32 HD21 ASN A   3      33.129  15.078  26.557  0.00  0.00    +0.145 HD
ATOM     33 HD22 ASN A   3      32.072  13.857  25.761  0.00  0.00    +0.145 HD
ATOM     34  OD1 ASN A   3      31.948  17.020  25.477  0.00  0.00    -0.275 OA
ENDBRANCH  29  30
ENDBRANCH  21  29
ENDBRANCH  18  21
ENDBRANCH   1  17
BRANCH   1  35
ATOM     35  CB  THR A   2      32.081  12.104  20.075  0.00  0.00    +0.137 C 
ATOM     36  CG2 THR A   2      31.159  13.276  19.713  0.00  0.00    +0.034 C 
BRANCH  35  37
ATOM     37  OG1 THR A   2      33.097  11.987  19.077  0.00  0.00    -0.382 OA
ATOM     38  HG1 THR A   2      32.675  11.847  18.193  0.00  0.00    +0.210 HD
ENDBRANCH  35  37
ENDBRANCH   1  35
TORSDOF 17
REMARK  Name = ../refined-set-2016/3g2n/3g2n_pocket.pdb
REMARK  248 active torsions:
REMARK  status: ('A' for Active; 'I' for Inactive)
REMARK    1  A    between atoms: _1  and  _3
REMARK    2  A    between atoms: _3  and  _4
REMARK    3  A    between atoms: _3  and  _6
REMARK    4  A    between atoms: _6  and  _7
REMARK    5  A    between atoms: _12  and  _13
REMARK    6  A    between atoms: _15  and  _17
REMARK    7  A    between atoms: _17  and  _18
REMARK    8  A    between atoms: _17  and  _20
REMARK    9  A    between atoms: _20  and  _21
REMARK   10  A    between atoms: _21  and  _22
REMARK   11  A    between atoms: _25  and  _27
REMARK   12  A    between atoms: _27  and  _28
REMARK   13  A    between atoms: _27  and  _30
REMARK   14  A    between atoms: _30  and  _31
REMARK   15  A    between atoms: _36  and  _38
REMARK   16  A    between atoms: _38  and  _39
REMARK   17  A    between atoms: _41  and  _43
REMARK   18  A    between atoms: _43  and  _44
REMARK   19  A    between atoms: _46  and  _48
REMARK   20  A    between atoms: _48  and  _49
REMARK   21  A    between atoms: _48  and  _51
REMARK   22  A    between atoms: _51  and  _52
REMARK   23  A    between atoms: _55  and  _57
REMARK   24  A    between atoms: _57  and  _58
REMARK   25  A    between atoms: _60  and  _62
REMARK   26  A    between atoms: _62  and  _63
REMARK   27  A    between atoms: _62  and  _65
REMARK   28  A    between atoms: _65  and  _66
REMARK   29  A    between atoms: _66  and  _67
REMARK   30  A    between atoms: _67  and  _68
REMARK   31  A    between atoms: _77  and  _79
REMARK   32  A    between atoms: _79  and  _80
REMARK   33  A    between atoms: _79  and  _82
REMARK   34  A    between atoms: _82  and  _83
REMARK   35  A    between atoms: _86  and  _88
REMARK   36  A    between atoms: _88  and  _89
REMARK   37  A    between atoms: _92  and  _94
REMARK   38  A    between atoms: _94  and  _95
REMARK   39  A    between atoms: _94  and  _97
REMARK   40  A    between atoms: _97  and  _98
REMARK   41  A    between atoms: _104  and  _106
REMARK   42  A    between atoms: _106  and  _107
REMARK   43  A    between atoms: _106  and  _109
REMARK   44  A    between atoms: _109  and  _110
REMARK   45  A    between atoms: _115  and  _117
REMARK   46  A    between atoms: _117  and  _118
REMARK   47  A    between atoms: _117  and  _120
REMARK   48  A    between atoms: _120  and  _121
REMARK   49  A    between atoms: _124  and  _126
REMARK   50  A    between atoms: _126  and  _127
REMARK   51  A    between atoms: _126  and  _129
REMARK   52  A    between atoms: _129  and  _130
REMARK   53  A    between atoms: _135  and  _137
REMARK   54  A    between atoms: _137  and  _138
REMARK   55  A    between atoms: _137  and  _140
REMARK   56  A    between atoms: _140  and  _141
REMARK   57  A    between atoms: _147  and  _149
REMARK   58  A    between atoms: _149  and  _150
REMARK   59  A    between atoms: _149  and  _152
REMARK   60  A    between atoms: _152  and  _153
REMARK   61  A    between atoms: _159  and  _161
REMARK   62  A    between atoms: _161  and  _162
REMARK   63  A    between atoms: _161  and  _164
REMARK   64  A    between atoms: _164  and  _165
REMARK   65  A    between atoms: _165  and  _166
REMARK   66  A    between atoms: _166  and  _167
REMARK   67  A    between atoms: _176  and  _178
REMARK   68  A    between atoms: _178  and  _179
REMARK   69  A    between atoms: _178  and  _181
REMARK   70  A    between atoms: _181  and  _182
REMARK   71  A    between atoms: _187  and  _189
REMARK   72  A    between atoms: _189  and  _190
REMARK   73  A    between atoms: _189  and  _192
REMARK   74  A    between atoms: _192  and  _193
REMARK   75  A    between atoms: _196  and  _198
REMARK   76  A    between atoms: _198  and  _199
REMARK   77  A    between atoms: _198  and  _201
REMARK   78  A    between atoms: _201  and  _202
REMARK   79  A    between atoms: _205  and  _207
REMARK   80  A    between atoms: _207  and  _208
REMARK   81  A    between atoms: _207  and  _210
REMARK   82  A    between atoms: _210  and  _211
REMARK   83  A    between atoms: _216  and  _218
REMARK   84  A    between atoms: _218  and  _219
REMARK   85  A    between atoms: _218  and  _221
REMARK   86  A    between atoms: _221  and  _222
REMARK   87  A    between atoms: _227  and  _228
REMARK   88  A    between atoms: _230  and  _232
REMARK   89  A    between atoms: _232  and  _233
REMARK   90  A    between atoms: _232  and  _235
REMARK   91  A    between atoms: _235  and  _236
REMARK   92  A    between atoms: _239  and  _241
REMARK   93  A    between atoms: _241  and  _242
REMARK   94  A    between atoms: _241  and  _244
REMARK   95  A    between atoms: _244  and  _245
REMARK   96  A    between atoms: _250  and  _252
REMARK   97  A    between atoms: _252  and  _253
REMARK   98  A    between atoms: _252  and  _255
REMARK   99  A    between atoms: _255  and  _256
REMARK  100  A    between atoms: _261  and  _263
REMARK  101  A    between atoms: _263  and  _264
REMARK  102  A    between atoms: _263  and  _266
REMARK  103  A    between atoms: _266  and  _267
REMARK  104  A    between atoms: _270  and  _272
REMARK  105  A    between atoms: _272  and  _273
REMARK  106  A    between atoms: _272  and  _275
REMARK  107  A    between atoms: _278  and  _280
REMARK  108  A    between atoms: _280  and  _281
REMARK  109  A    between atoms: _280  and  _283
REMARK  110  A    between atoms: _283  and  _284
REMARK  111  A    between atoms: _287  and  _289
REMARK  112  A    between atoms: _289  and  _290
REMARK  113  A    between atoms: _289  and  _292
REMARK  114  A    between atoms: _292  and  _293
REMARK  115  A    between atoms: _293  and  _294
REMARK  116  A    between atoms: _297  and  _299
REMARK  117  A    between atoms: _299  and  _300
REMARK  118  A    between atoms: _303  and  _305
REMARK  119  A    between atoms: _305  and  _306
REMARK  120  A    between atoms: _305  and  _308
REMARK  121  A    between atoms: _308  and  _309
REMARK  122  A    between atoms: _312  and  _314
REMARK  123  A    between atoms: _314  and  _315
REMARK  124  A    between atoms: _314  and  _317
REMARK  125  A    between atoms: _317  and  _318
REMARK  126  A    between atoms: _318  and  _319
REMARK  127  A    between atoms: _322  and  _324
REMARK  128  A    between atoms: _324  and  _325
REMARK  129  A    between atoms: _324  and  _327
REMARK  130  A    between atoms: _327  and  _328
REMARK  131  A    between atoms: _333  and  _335
REMARK  132  A    between atoms: _335  and  _336
REMARK  133  A    between atoms: _338  and  _340
REMARK  134  A    between atoms: _340  and  _341
REMARK  135  A    between atoms: _340  and  _343
REMARK  136  A    between atoms: _346  and  _348
REMARK  137  A    between atoms: _348  and  _349
REMARK  138  A    between atoms: _352  and  _354
REMARK  139  A    between atoms: _354  and  _355
REMARK  140  A    between atoms: _354  and  _357
REMARK  141  A    between atoms: _357  and  _358
REMARK  142  A    between atoms: _363  and  _365
REMARK  143  A    between atoms: _365  and  _366
REMARK  144  A    between atoms: _365  and  _368
REMARK  145  A    between atoms: _368  and  _369
REMARK  146  A    between atoms: _369  and  _370
REMARK  147  A    between atoms: _370  and  _371
REMARK  148  A    between atoms: _371  and  _372
REMARK  149  A    between atoms: _376  and  _378
REMARK  150  A    between atoms: _378  and  _379
REMARK  151  A    between atoms: _378  and  _381
REMARK  152  A    between atoms: _381  and  _382
REMARK  153  A    between atoms: _385  and  _387
REMARK  154  A    between atoms: _387  and  _388
REMARK  155  A    between atoms: _387  and  _390
REMARK  156  A    between atoms: _390  and  _391
REMARK  157  A    between atoms: _396  and  _398
REMARK  158  A    between atoms: _398  and  _399
REMARK  159  A    between atoms: _401  and  _403
REMARK  160  A    between atoms: _403  and  _404
REMARK  161  A    between atoms: _403  and  _406
REMARK  162  A    between atoms: _406  and  _407
REMARK  163  A    between atoms: _407  and  _408
REMARK  164  A    between atoms: _408  and  _409
REMARK  165  A    between atoms: _409  and  _410
REMARK  166  A    between atoms: _414  and  _416
REMARK  167  A    between atoms: _416  and  _417
REMARK  168  A    between atoms: _416  and  _419
REMARK  169  A    between atoms: _419  and  _420
REMARK  170  A    between atoms: _420  and  _421
REMARK  171  A    between atoms: _421  and  _422
REMARK  172  A    between atoms: _431  and  _433
REMARK  173  A    between atoms: _433  and  _434
REMARK  174  A    between atoms: _433  and  _436
REMARK  175  A    between atoms: _436  and  _437
REMARK  176  A    between atoms: _442  and  _444
REMARK  177  A    between atoms: _444  and  _445
REMARK  178  A    between atoms: _444  and  _447
REMARK  179  A    between atoms: _447  and  _448
REMARK  180  A    between atoms: _453  and  _454
REMARK  181  A    between atoms: _456  and  _458
REMARK  182  A    between atoms: _458  and  _459
REMARK  183  A    between atoms: _458  and  _461
REMARK  184  A    between atoms: _461  and  _462
REMARK  185  A    between atoms: _462  and  _463
REMARK  186  A    between atoms: _463  and  _464
REMARK  187  A    between atoms: _464  and  _465
REMARK  188  A    between atoms: _469  and  _471
REMARK  189  A    between atoms: _471  and  _472
REMARK  190  A    between atoms: _471  and  _474
REMARK  191  A    between atoms: _474  and  _475
REMARK  192  A    between atoms: _477  and  _479
REMARK  193  A    between atoms: _479  and  _480
REMARK  194  A    between atoms: _479  and  _482
REMARK  195  A    between atoms: _482  and  _483
REMARK  196  A    between atoms: _486  and  _488
REMARK  197  A    between atoms: _488  and  _489
REMARK  198  A    between atoms: _488  and  _491
REMARK  199  A    between atoms: _491  and  _492
REMARK  200  A    between atoms: _492  and  _493
REMARK  201  A    between atoms: _496  and  _498
REMARK  202  A    between atoms: _498  and  _499
REMARK  203  A    between atoms: _502  and  _504
REMARK  204  A    between atoms: _504  and  _505
REMARK  205  A    between atoms: _504  and  _507
REMARK  206  A    between atoms: _507  and  _508
REMARK  207  A    between atoms: _510  and  _512
REMARK  208  A    between atoms: _512  and  _513
REMARK  209  A    between atoms: _515  and  _517
REMARK  210  A    between atoms: _517  and  _518
REMARK  211  A    between atoms: _517  and  _520
REMARK  212  A    between atoms: _520  and  _521
REMARK  213  A    between atoms: _524  and  _526
REMARK  214  A    between atoms: _526  and  _527
REMARK  215  A    between atoms: _529  and  _531
REMARK  216  A    between atoms: _531  and  _532
REMARK  217  A    between atoms: _531  and  _534
REMARK  218  A    between atoms: _534  and  _535
REMARK  219  A    between atoms: _540  and  _542
REMARK  220  A    between atoms: _542  and  _543
REMARK  221  A    between atoms: _542  and  _545
REMARK  222  A    between atoms: _545  and  _546
REMARK  223  A    between atoms: _546  and  _547
REMARK  224  A    between atoms: _554  and  _555
REMARK  225  A    between atoms: _555  and  _571
REMARK  226  A    between atoms: _556  and  _558
REMARK  227  A    between atoms: _558  and  _559
REMARK  228  A    between atoms: _559  and  _560
REMARK  229  A    between atoms: _564  and  _566
REMARK  230  A    between atoms: _566  and  _567
REMARK  231  A    between atoms: _566  and  _574
REMARK  232  A    between atoms: _567  and  _568
REMARK  233  A    between atoms: _568  and  _569
REMARK  234  A    between atoms: _569  and  _570
REMARK  235  A    between atoms: _570  and  _571
REMARK  236  A    between atoms: _576  and  _578
REMARK  237  A    between atoms: _578  and  _579
REMARK  238  A    between atoms: _578  and  _581
REMARK  239  A    between atoms: _581  and  _582
REMARK  240  A    between atoms: _585  and  _587
REMARK  241  A    between atoms: _587  and  _588
REMARK  242  A    between atoms: _590  and  _592
REMARK  243  A    between atoms: _592  and  _593
REMARK  244  A    between atoms: _596  and  _598
REMARK  245  A    between atoms: _598  and  _599
REMARK  246  A    between atoms: _598  and  _601
REMARK  247  A    between atoms: _601  and  _602
REMARK  248  A    between atoms: _607  and  _608
REMARK                            x       y       z     vdW  Elec       q    Type
REMARK                         _______ _______ _______ _____ _____    ______ ____
ROOT
ATOM      1  C   LYS A   1      26.064  30.443  27.154  0.00  0.00    +0.238 C 
ATOM      2  N   ARG A   2      27.125  30.126  27.887  0.00  0.00    -0.298 N 
ATOM      3  H   ARG A   2      27.413  29.130  27.967  0.00  0.00    +0.150 HD
ATOM      4  O   LYS A   1      25.669  31.608  27.021  0.00  0.00    -0.274 OA
ENDROOT
BRANCH   1   5
ATOM      5  CA  LYS A   1      25.347  29.296  26.442  0.00  0.00    +0.145 C 
BRANCH   5   6
ATOM      6  N   LYS A   1      24.048  29.815  26.016  0.00  0.00    -0.238 NA
ATOM      7  H   LYS A   1      23.777  30.768  26.332  0.00  0.00    +0.142 HD
ENDBRANCH   5   6
BRANCH   5   8
ATOM      8  CB  LYS A   1      26.185  28.829  25.238  0.00  0.00    +0.026 C 
BRANCH   8   9
ATOM      9  CG  LYS A   1      26.367  29.890  24.135  0.00  0.00    -0.000 C 
BRANCH   9  10
ATOM     10  CD  LYS A   1      26.994  29.303  22.870  0.00  0.00    -0.024 C 
BRANCH  10  11
ATOM     11  CE  LYS A   1      26.013  28.390  22.135  0.00  0.00    -0.086 C 
BRANCH  11  12
ATOM     12  NZ  LYS A   1      26.603  27.049  21.873  0.00  0.00    +0.380 N 
ATOM     13  HZ1 LYS A   1      26.856  26.600  22.777  0.00  0.00    -0.089 HD
ATOM     14  HZ2 LYS A   1      25.909  26.458  21.373  0.00  0.00    -0.089 HD
ATOM     15  HZ3 LYS A   1      27.455  27.155  21.287  0.00  0.00    -0.089 HD
ENDBRANCH  11  12
ENDBRANCH  10  11
ENDBRANCH   9  10
ENDBRANCH   8   9
ENDBRANCH   5   8
ENDBRANCH   1   5
BRANCH   2  16
ATOM     16  CA  ARG A   2      27.896  31.159  28.585  0.00  0.00    +0.137 C 
BRANCH  16  17
ATOM     17  C   ARG A   2      28.398  32.220  27.598  0.00  0.00    +0.227 C 
ATOM     18  O   ARG A   2      28.732  31.895  26.456  0.00  0.00    -0.286 OA
ENDBRANCH  16  17
BRANCH  16  19
ATOM     19  CB  ARG A   2      29.080  30.522  29.328  0.00  0.00    +0.031 C 
BRANCH  19  20
ATOM     20  CG  ARG A   2      28.664  29.631  30.504  0.00  0.00    +0.045 C 
BRANCH  20  21
ATOM     21  CD  ARG A   2      28.048  30.452  31.636  0.00  0.00    +0.174 C 
BRANCH  21  22
ATOM     22  NE  ARG A   2      28.993  31.433  32.184  0.00  0.00    -0.265 N 
ATOM     23  CZ  ARG A   2      29.604  31.311  33.361  0.00  0.00    +0.342 C 
ATOM     24  NH2 ARG A   2      29.362  30.262  34.143  0.00  0.00    -0.292 N 
ATOM     25 HH21 ARG A   2      29.844  30.175  35.061  0.00  0.00    +0.255 HD
ATOM     26 HH22 ARG A   2      28.691  29.529  33.837  0.00  0.00    +0.255 HD
ATOM     27  NH1 ARG A   2      30.450  32.254  33.769  0.00  0.00    -0.292 N 
ATOM     28 HH11 ARG A   2      30.928  32.161  34.688  0.00  0.00    +0.255 HD
ATOM     29 HH12 ARG A   2      30.633  33.084  33.169  0.00  0.00    +0.255 HD
ATOM     30  HE  ARG A   2      29.199  32.279  31.615  0.00  0.00    +0.259 HD
ENDBRANCH  21  22
ENDBRANCH  20  21
ENDBRANCH  19  20
ENDBRANCH  16  19
ENDBRANCH   2  16
TORSDOF 13
REMARK  Name = ../refined-set-2016/3g2n/3g2n_pocket.pdb
REMARK  248 active torsions:
REMARK  status: ('A' for Active; 'I' for Inactive)
REMARK    1  A    between atoms: _1  and  _3
REMARK    2  A    between atoms: _3  and  _4
REMARK    3  A    between atoms: _3  and  _6
REMARK    4  A    between atoms: _6  and  _7
REMARK    5  A    between atoms: _12  and  _13
REMARK    6  A    between atoms: _15  and  _17
REMARK    7  A    between atoms: _17  and  _18
REMARK    8  A    between atoms: _17  and  _20
REMARK    9  A    between atoms: _20  and  _21
REMARK   10  A    between atoms: _21  and  _22
REMARK   11  A    between atoms: _25  and  _27
REMARK   12  A    between atoms: _27  and  _28
REMARK   13  A    between atoms: _27  and  _30
REMARK   14  A    between atoms: _30  and  _31
REMARK   15  A    between atoms: _36  and  _38
REMARK   16  A    between atoms: _38  and  _39
REMARK   17  A    between atoms: _41  and  _43
REMARK   18  A    between atoms: _43  and  _44
REMARK   19  A    between atoms: _46  and  _48
REMARK   20  A    between atoms: _48  and  _49
REMARK   21  A    between atoms: _48  and  _51
REMARK   22  A    between atoms: _51  and  _52
REMARK   23  A    between atoms: _55  and  _57
REMARK   24  A    between atoms: _57  and  _58
REMARK   25  A    between atoms: _60  and  _62
REMARK   26  A    between atoms: _62  and  _63
REMARK   27  A    between atoms: _62  and  _65
REMARK   28  A    between atoms: _65  and  _66
REMARK   29  A    between atoms: _66  and  _67
REMARK   30  A    between atoms: _67  and  _68
REMARK   31  A    between atoms: _77  and  _79
REMARK   32  A    between atoms: _79  and  _80
REMARK   33  A    between atoms: _79  and  _82
REMARK   34  A    between atoms: _82  and  _83
REMARK   35  A    between atoms: _86  and  _88
REMARK   36  A    between atoms: _88  and  _89
REMARK   37  A    between atoms: _92  and  _94
REMARK   38  A    between atoms: _94  and  _95
REMARK   39  A    between atoms: _94  and  _97
REMARK   40  A    between atoms: _97  and  _98
REMARK   41  A    between atoms: _104  and  _106
REMARK   42  A    between atoms: _106  and  _107
REMARK   43  A    between atoms: _106  and  _109
REMARK   44  A    between atoms: _109  and  _110
REMARK   45  A    between atoms: _115  and  _117
REMARK   46  A    between atoms: _117  and  _118
REMARK   47  A    between atoms: _117  and  _120
REMARK   48  A    between atoms: _120  and  _121
REMARK   49  A    between atoms: _124  and  _126
REMARK   50  A    between atoms: _126  and  _127
REMARK   51  A    between atoms: _126  and  _129
REMARK   52  A    between atoms: _129  and  _130
REMARK   53  A    between atoms: _135  and  _137
REMARK   54  A    between atoms: _137  and  _138
REMARK   55  A    between atoms: _137  and  _140
REMARK   56  A    between atoms: _140  and  _141
REMARK   57  A    between atoms: _147  and  _149
REMARK   58  A    between atoms: _149  and  _150
REMARK   59  A    between atoms: _149  and  _152
REMARK   60  A    between atoms: _152  and  _153
REMARK   61  A    between atoms: _159  and  _161
REMARK   62  A    between atoms: _161  and  _162
REMARK   63  A    between atoms: _161  and  _164
REMARK   64  A    between atoms: _164  and  _165
REMARK   65  A    between atoms: _165  and  _166
REMARK   66  A    between atoms: _166  and  _167
REMARK   67  A    between atoms: _176  and  _178
REMARK   68  A    between atoms: _178  and  _179
REMARK   69  A    between atoms: _178  and  _181
REMARK   70  A    between atoms: _181  and  _182
REMARK   71  A    between atoms: _187  and  _189
REMARK   72  A    between atoms: _189  and  _190
REMARK   73  A    between atoms: _189  and  _192
REMARK   74  A    between atoms: _192  and  _193
REMARK   75  A    between atoms: _196  and  _198
REMARK   76  A    between atoms: _198  and  _199
REMARK   77  A    between atoms: _198  and  _201
REMARK   78  A    between atoms: _201  and  _202
REMARK   79  A    between atoms: _205  and  _207
REMARK   80  A    between atoms: _207  and  _208
REMARK   81  A    between atoms: _207  and  _210
REMARK   82  A    between atoms: _210  and  _211
REMARK   83  A    between atoms: _216  and  _218
REMARK   84  A    between atoms: _218  and  _219
REMARK   85  A    between atoms: _218  and  _221
REMARK   86  A    between atoms: _221  and  _222
REMARK   87  A    between atoms: _227  and  _228
REMARK   88  A    between atoms: _230  and  _232
REMARK   89  A    between atoms: _232  and  _233
REMARK   90  A    between atoms: _232  and  _235
REMARK   91  A    between atoms: _235  and  _236
REMARK   92  A    between atoms: _239  and  _241
REMARK   93  A    between atoms: _241  and  _242
REMARK   94  A    between atoms: _241  and  _244
REMARK   95  A    between atoms: _244  and  _245
REMARK   96  A    between atoms: _250  and  _252
REMARK   97  A    between atoms: _252  and  _253
REMARK   98  A    between atoms: _252  and  _255
REMARK   99  A    between atoms: _255  and  _256
REMARK  100  A    between atoms: _261  and  _263
REMARK  101  A    between atoms: _263  and  _264
REMARK  102  A    between atoms: _263  and  _266
REMARK  103  A    between atoms: _266  and  _267
REMARK  104  A    between atoms: _270  and  _272
REMARK  105  A    between atoms: _272  and  _273
REMARK  106  A    between atoms: _272  and  _275
REMARK  107  A    between atoms: _278  and  _280
REMARK  108  A    between atoms: _280  and  _281
REMARK  109  A    between atoms: _280  and  _283
REMARK  110  A    between atoms: _283  and  _284
REMARK  111  A    between atoms: _287  and  _289
REMARK  112  A    between atoms: _289  and  _290
REMARK  113  A    between atoms: _289  and  _292
REMARK  114  A    between atoms: _292  and  _293
REMARK  115  A    between atoms: _293  and  _294
REMARK  116  A    between atoms: _297  and  _299
REMARK  117  A    between atoms: _299  and  _300
REMARK  118  A    between atoms: _303  and  _305
REMARK  119  A    between atoms: _305  and  _306
REMARK  120  A    between atoms: _305  and  _308
REMARK  121  A    between atoms: _308  and  _309
REMARK  122  A    between atoms: _312  and  _314
REMARK  123  A    between atoms: _314  and  _315
REMARK  124  A    between atoms: _314  and  _317
REMARK  125  A    between atoms: _317  and  _318
REMARK  126  A    between atoms: _318  and  _319
REMARK  127  A    between atoms: _322  and  _324
REMARK  128  A    between atoms: _324  and  _325
REMARK  129  A    between atoms: _324  and  _327
REMARK  130  A    between atoms: _327  and  _328
REMARK  131  A    between atoms: _333  and  _335
REMARK  132  A    between atoms: _335  and  _336
REMARK  133  A    between atoms: _338  and  _340
REMARK  134  A    between atoms: _340  and  _341
REMARK  135  A    between atoms: _340  and  _343
REMARK  136  A    between atoms: _346  and  _348
REMARK  137  A    between atoms: _348  and  _349
REMARK  138  A    between atoms: _352  and  _354
REMARK  139  A    between atoms: _354  and  _355
REMARK  140  A    between atoms: _354  and  _357
REMARK  141  A    between atoms: _357  and  _358
REMARK  142  A    between atoms: _363  and  _365
REMARK  143  A    between atoms: _365  and  _366
REMARK  144  A    between atoms: _365  and  _368
REMARK  145  A    between atoms: _368  and  _369
REMARK  146  A    between atoms: _369  and  _370
REMARK  147  A    between atoms: _370  and  _371
REMARK  148  A    between atoms: _371  and  _372
REMARK  149  A    between atoms: _376  and  _378
REMARK  150  A    between atoms: _378  and  _379
REMARK  151  A    between atoms: _378  and  _381
REMARK  152  A    between atoms: _381  and  _382
REMARK  153  A    between atoms: _385  and  _387
REMARK  154  A    between atoms: _387  and  _388
REMARK  155  A    between atoms: _387  and  _390
REMARK  156  A    between atoms: _390  and  _391
REMARK  157  A    between atoms: _396  and  _398
REMARK  158  A    between atoms: _398  and  _399
REMARK  159  A    between atoms: _401  and  _403
REMARK  160  A    between atoms: _403  and  _404
REMARK  161  A    between atoms: _403  and  _406
REMARK  162  A    between atoms: _406  and  _407
REMARK  163  A    between atoms: _407  and  _408
REMARK  164  A    between atoms: _408  and  _409
REMARK  165  A    between atoms: _409  and  _410
REMARK  166  A    between atoms: _414  and  _416
REMARK  167  A    between atoms: _416  and  _417
REMARK  168  A    between atoms: _416  and  _419
REMARK  169  A    between atoms: _419  and  _420
REMARK  170  A    between atoms: _420  and  _421
REMARK  171  A    between atoms: _421  and  _422
REMARK  172  A    between atoms: _431  and  _433
REMARK  173  A    between atoms: _433  and  _434
REMARK  174  A    between atoms: _433  and  _436
REMARK  175  A    between atoms: _436  and  _437
REMARK  176  A    between atoms: _442  and  _444
REMARK  177  A    between atoms: _444  and  _445
REMARK  178  A    between atoms: _444  and  _447
REMARK  179  A    between atoms: _447  and  _448
REMARK  180  A    between atoms: _453  and  _454
REMARK  181  A    between atoms: _456  and  _458
REMARK  182  A    between atoms: _458  and  _459
REMARK  183  A    between atoms: _458  and  _461
REMARK  184  A    between atoms: _461  and  _462
REMARK  185  A    between atoms: _462  and  _463
REMARK  186  A    between atoms: _463  and  _464
REMARK  187  A    between atoms: _464  and  _465
REMARK  188  A    between atoms: _469  and  _471
REMARK  189  A    between atoms: _471  and  _472
REMARK  190  A    between atoms: _471  and  _474
REMARK  191  A    between atoms: _474  and  _475
REMARK  192  A    between atoms: _477  and  _479
REMARK  193  A    between atoms: _479  and  _480
REMARK  194  A    between atoms: _479  and  _482
REMARK  195  A    between atoms: _482  and  _483
REMARK  196  A    between atoms: _486  and  _488
REMARK  197  A    between atoms: _488  and  _489
REMARK  198  A    between atoms: _488  and  _491
REMARK  199  A    between atoms: _491  and  _492
REMARK  200  A    between atoms: _492  and  _493
REMARK  201  A    between atoms: _496  and  _498
REMARK  202  A    between atoms: _498  and  _499
REMARK  203  A    between atoms: _502  and  _504
REMARK  204  A    between atoms: _504  and  _505
REMARK  205  A    between atoms: _504  and  _507
REMARK  206  A    between atoms: _507  and  _508
REMARK  207  A    between atoms: _510  and  _512
REMARK  208  A    between atoms: _512  and  _513
REMARK  209  A    between atoms: _515  and  _517
REMARK  210  A    between atoms: _517  and  _518
REMARK  211  A    between atoms: _517  and  _520
REMARK  212  A    between atoms: _520  and  _521
REMARK  213  A    between atoms: _524  and  _526
REMARK  214  A    between atoms: _526  and  _527
REMARK  215  A    between atoms: _529  and  _531
REMARK  216  A    between atoms: _531  and  _532
REMARK  217  A    between atoms: _531  and  _534
REMARK  218  A    between atoms: _534  and  _535
REMARK  219  A    between atoms: _540  and  _542
REMARK  220  A    between atoms: _542  and  _543
REMARK  221  A    between atoms: _542  and  _545
REMARK  222  A    between atoms: _545  and  _546
REMARK  223  A    between atoms: _546  and  _547
REMARK  224  A    between atoms: _554  and  _555
REMARK  225  A    between atoms: _555  and  _571
REMARK  226  A    between atoms: _556  and  _558
REMARK  227  A    between atoms: _558  and  _559
REMARK  228  A    between atoms: _559  and  _560
REMARK  229  A    between atoms: _564  and  _566
REMARK  230  A    between atoms: _566  and  _567
REMARK  231  A    between atoms: _566  and  _574
REMARK  232  A    between atoms: _567  and  _568
REMARK  233  A    between atoms: _568  and  _569
REMARK  234  A    between atoms: _569  and  _570
REMARK  235  A    between atoms: _570  and  _571
REMARK  236  A    between atoms: _576  and  _578
REMARK  237  A    between atoms: _578  and  _579
REMARK  238  A    between atoms: _578  and  _581
REMARK  239  A    between atoms: _581  and  _582
REMARK  240  A    between atoms: _585  and  _587
REMARK  241  A    between atoms: _587  and  _588
REMARK  242  A    between atoms: _590  and  _592
REMARK  243  A    between atoms: _592  and  _593
REMARK  244  A    between atoms: _596  and  _598
REMARK  245  A    between atoms: _598  and  _599
REMARK  246  A    between atoms: _598  and  _601
REMARK  247  A    between atoms: _601  and  _602
REMARK  248  A    between atoms: _607  and  _608
REMARK                            x       y       z     vdW  Elec       q    Type
REMARK                         _______ _______ _______ _____ _____    ______ ____
ROOT
ATOM      1  CB  HIS A   1      33.080  33.039  25.826  0.00  0.00    +0.072 C 
ENDROOT
BRANCH   1   2
ATOM      2  CG  HIS A   1      34.568  33.150  25.951  0.00  0.00    +0.082 A 
ATOM      3  ND1 HIS A   1      35.234  32.911  27.135  0.00  0.00    -0.227 NA
ATOM      4  CE1 HIS A   1      36.531  33.096  26.952  0.00  0.00    +0.199 A 
ATOM      5  NE2 HIS A   1      36.729  33.465  25.698  0.00  0.00    -0.221 NA
ATOM      6  CD2 HIS A   1      35.518  33.509  25.051  0.00  0.00    +0.115 A 
ENDBRANCH   1   2
BRANCH   1   7
ATOM      7  CA  HIS A   1      32.385  34.385  25.611  0.00  0.00    +0.139 C 
BRANCH   7   8
ATOM      8  N   HIS A   1      30.956  34.300  25.883  0.00  0.00    -0.239 NA
ATOM      9  H   HIS A   1      30.308  34.044  25.111  0.00  0.00    +0.142 HD
ENDBRANCH   7   8
BRANCH   7  10
ATOM     10  C   HIS A   1      32.606  34.846  24.188  0.00  0.00    +0.224 C 
ATOM     11  O   HIS A   1      31.815  34.520  23.297  0.00  0.00    -0.287 OA
ENDBRANCH   7  10
ENDBRANCH   1   7
TORSDOF 4
REMARK  Name = ../refined-set-2016/3g2n/3g2n_pocket.pdb
REMARK  248 active torsions:
REMARK  status: ('A' for Active; 'I' for Inactive)
REMARK    1  A    between atoms: _1  and  _3
REMARK    2  A    between atoms: _3  and  _4
REMARK    3  A    between atoms: _3  and  _6
REMARK    4  A    between atoms: _6  and  _7
REMARK    5  A    between atoms: _12  and  _13
REMARK    6  A    between atoms: _15  and  _17
REMARK    7  A    between atoms: _17  and  _18
REMARK    8  A    between atoms: _17  and  _20
REMARK    9  A    between atoms: _20  and  _21
REMARK   10  A    between atoms: _21  and  _22
REMARK   11  A    between atoms: _25  and  _27
REMARK   12  A    between atoms: _27  and  _28
REMARK   13  A    between atoms: _27  and  _30
REMARK   14  A    between atoms: _30  and  _31
REMARK   15  A    between atoms: _36  and  _38
REMARK   16  A    between atoms: _38  and  _39
REMARK   17  A    between atoms: _41  and  _43
REMARK   18  A    between atoms: _43  and  _44
REMARK   19  A    between atoms: _46  and  _48
REMARK   20  A    between atoms: _48  and  _49
REMARK   21  A    between atoms: _48  and  _51
REMARK   22  A    between atoms: _51  and  _52
REMARK   23  A    between atoms: _55  and  _57
REMARK   24  A    between atoms: _57  and  _58
REMARK   25  A    between atoms: _60  and  _62
REMARK   26  A    between atoms: _62  and  _63
REMARK   27  A    between atoms: _62  and  _65
REMARK   28  A    between atoms: _65  and  _66
REMARK   29  A    between atoms: _66  and  _67
REMARK   30  A    between atoms: _67  and  _68
REMARK   31  A    between atoms: _77  and  _79
REMARK   32  A    between atoms: _79  and  _80
REMARK   33  A    between atoms: _79  and  _82
REMARK   34  A    between atoms: _82  and  _83
REMARK   35  A    between atoms: _86  and  _88
REMARK   36  A    between atoms: _88  and  _89
REMARK   37  A    between atoms: _92  and  _94
REMARK   38  A    between atoms: _94  and  _95
REMARK   39  A    between atoms: _94  and  _97
REMARK   40  A    between atoms: _97  and  _98
REMARK   41  A    between atoms: _104  and  _106
REMARK   42  A    between atoms: _106  and  _107
REMARK   43  A    between atoms: _106  and  _109
REMARK   44  A    between atoms: _109  and  _110
REMARK   45  A    between atoms: _115  and  _117
REMARK   46  A    between atoms: _117  and  _118
REMARK   47  A    between atoms: _117  and  _120
REMARK   48  A    between atoms: _120  and  _121
REMARK   49  A    between atoms: _124  and  _126
REMARK   50  A    between atoms: _126  and  _127
REMARK   51  A    between atoms: _126  and  _129
REMARK   52  A    between atoms: _129  and  _130
REMARK   53  A    between atoms: _135  and  _137
REMARK   54  A    between atoms: _137  and  _138
REMARK   55  A    between atoms: _137  and  _140
REMARK   56  A    between atoms: _140  and  _141
REMARK   57  A    between atoms: _147  and  _149
REMARK   58  A    between atoms: _149  and  _150
REMARK   59  A    between atoms: _149  and  _152
REMARK   60  A    between atoms: _152  and  _153
REMARK   61  A    between atoms: _159  and  _161
REMARK   62  A    between atoms: _161  and  _162
REMARK   63  A    between atoms: _161  and  _164
REMARK   64  A    between atoms: _164  and  _165
REMARK   65  A    between atoms: _165  and  _166
REMARK   66  A    between atoms: _166  and  _167
REMARK   67  A    between atoms: _176  and  _178
REMARK   68  A    between atoms: _178  and  _179
REMARK   69  A    between atoms: _178  and  _181
REMARK   70  A    between atoms: _181  and  _182
REMARK   71  A    between atoms: _187  and  _189
REMARK   72  A    between atoms: _189  and  _190
REMARK   73  A    between atoms: _189  and  _192
REMARK   74  A    between atoms: _192  and  _193
REMARK   75  A    between atoms: _196  and  _198
REMARK   76  A    between atoms: _198  and  _199
REMARK   77  A    between atoms: _198  and  _201
REMARK   78  A    between atoms: _201  and  _202
REMARK   79  A    between atoms: _205  and  _207
REMARK   80  A    between atoms: _207  and  _208
REMARK   81  A    between atoms: _207  and  _210
REMARK   82  A    between atoms: _210  and  _211
REMARK   83  A    between atoms: _216  and  _218
REMARK   84  A    between atoms: _218  and  _219
REMARK   85  A    between atoms: _218  and  _221
REMARK   86  A    between atoms: _221  and  _222
REMARK   87  A    between atoms: _227  and  _228
REMARK   88  A    between atoms: _230  and  _232
REMARK   89  A    between atoms: _232  and  _233
REMARK   90  A    between atoms: _232  and  _235
REMARK   91  A    between atoms: _235  and  _236
REMARK   92  A    between atoms: _239  and  _241
REMARK   93  A    between atoms: _241  and  _242
REMARK   94  A    between atoms: _241  and  _244
REMARK   95  A    between atoms: _244  and  _245
REMARK   96  A    between atoms: _250  and  _252
REMARK   97  A    between atoms: _252  and  _253
REMARK   98  A    between atoms: _252  and  _255
REMARK   99  A    between atoms: _255  and  _256
REMARK  100  A    between atoms: _261  and  _263
REMARK  101  A    between atoms: _263  and  _264
REMARK  102  A    between atoms: _263  and  _266
REMARK  103  A    between atoms: _266  and  _267
REMARK  104  A    between atoms: _270  and  _272
REMARK  105  A    between atoms: _272  and  _273
REMARK  106  A    between atoms: _272  and  _275
REMARK  107  A    between atoms: _278  and  _280
REMARK  108  A    between atoms: _280  and  _281
REMARK  109  A    between atoms: _280  and  _283
REMARK  110  A    between atoms: _283  and  _284
REMARK  111  A    between atoms: _287  and  _289
REMARK  112  A    between atoms: _289  and  _290
REMARK  113  A    between atoms: _289  and  _292
REMARK  114  A    between atoms: _292  and  _293
REMARK  115  A    between atoms: _293  and  _294
REMARK  116  A    between atoms: _297  and  _299
REMARK  117  A    between atoms: _299  and  _300
REMARK  118  A    between atoms: _303  and  _305
REMARK  119  A    between atoms: _305  and  _306
REMARK  120  A    between atoms: _305  and  _308
REMARK  121  A    between atoms: _308  and  _309
REMARK  122  A    between atoms: _312  and  _314
REMARK  123  A    between atoms: _314  and  _315
REMARK  124  A    between atoms: _314  and  _317
REMARK  125  A    between atoms: _317  and  _318
REMARK  126  A    between atoms: _318  and  _319
REMARK  127  A    between atoms: _322  and  _324
REMARK  128  A    between atoms: _324  and  _325
REMARK  129  A    between atoms: _324  and  _327
REMARK  130  A    between atoms: _327  and  _328
REMARK  131  A    between atoms: _333  and  _335
REMARK  132  A    between atoms: _335  and  _336
REMARK  133  A    between atoms: _338  and  _340
REMARK  134  A    between atoms: _340  and  _341
REMARK  135  A    between atoms: _340  and  _343
REMARK  136  A    between atoms: _346  and  _348
REMARK  137  A    between atoms: _348  and  _349
REMARK  138  A    between atoms: _352  and  _354
REMARK  139  A    between atoms: _354  and  _355
REMARK  140  A    between atoms: _354  and  _357
REMARK  141  A    between atoms: _357  and  _358
REMARK  142  A    between atoms: _363  and  _365
REMARK  143  A    between atoms: _365  and  _366
REMARK  144  A    between atoms: _365  and  _368
REMARK  145  A    between atoms: _368  and  _369
REMARK  146  A    between atoms: _369  and  _370
REMARK  147  A    between atoms: _370  and  _371
REMARK  148  A    between atoms: _371  and  _372
REMARK  149  A    between atoms: _376  and  _378
REMARK  150  A    between atoms: _378  and  _379
REMARK  151  A    between atoms: _378  and  _381
REMARK  152  A    between atoms: _381  and  _382
REMARK  153  A    between atoms: _385  and  _387
REMARK  154  A    between atoms: _387  and  _388
REMARK  155  A    between atoms: _387  and  _390
REMARK  156  A    between atoms: _390  and  _391
REMARK  157  A    between atoms: _396  and  _398
REMARK  158  A    between atoms: _398  and  _399
REMARK  159  A    between atoms: _401  and  _403
REMARK  160  A    between atoms: _403  and  _404
REMARK  161  A    between atoms: _403  and  _406
REMARK  162  A    between atoms: _406  and  _407
REMARK  163  A    between atoms: _407  and  _408
REMARK  164  A    between atoms: _408  and  _409
REMARK  165  A    between atoms: _409  and  _410
REMARK  166  A    between atoms: _414  and  _416
REMARK  167  A    between atoms: _416  and  _417
REMARK  168  A    between atoms: _416  and  _419
REMARK  169  A    between atoms: _419  and  _420
REMARK  170  A    between atoms: _420  and  _421
REMARK  171  A    between atoms: _421  and  _422
REMARK  172  A    between atoms: _431  and  _433
REMARK  173  A    between atoms: _433  and  _434
REMARK  174  A    between atoms: _433  and  _436
REMARK  175  A    between atoms: _436  and  _437
REMARK  176  A    between atoms: _442  and  _444
REMARK  177  A    between atoms: _444  and  _445
REMARK  178  A    between atoms: _444  and  _447
REMARK  179  A    between atoms: _447  and  _448
REMARK  180  A    between atoms: _453  and  _454
REMARK  181  A    between atoms: _456  and  _458
REMARK  182  A    between atoms: _458  and  _459
REMARK  183  A    between atoms: _458  and  _461
REMARK  184  A    between atoms: _461  and  _462
REMARK  185  A    between atoms: _462  and  _463
REMARK  186  A    between atoms: _463  and  _464
REMARK  187  A    between atoms: _464  and  _465
REMARK  188  A    between atoms: _469  and  _471
REMARK  189  A    between atoms: _471  and  _472
REMARK  190  A    between atoms: _471  and  _474
REMARK  191  A    between atoms: _474  and  _475
REMARK  192  A    between atoms: _477  and  _479
REMARK  193  A    between atoms: _479  and  _480
REMARK  194  A    between atoms: _479  and  _482
REMARK  195  A    between atoms: _482  and  _483
REMARK  196  A    between atoms: _486  and  _488
REMARK  197  A    between atoms: _488  and  _489
REMARK  198  A    between atoms: _488  and  _491
REMARK  199  A    between atoms: _491  and  _492
REMARK  200  A    between atoms: _492  and  _493
REMARK  201  A    between atoms: _496  and  _498
REMARK  202  A    between atoms: _498  and  _499
REMARK  203  A    between atoms: _502  and  _504
REMARK  204  A    between atoms: _504  and  _505
REMARK  205  A    between atoms: _504  and  _507
REMARK  206  A    between atoms: _507  and  _508
REMARK  207  A    between atoms: _510  and  _512
REMARK  208  A    between atoms: _512  and  _513
REMARK  209  A    between atoms: _515  and  _517
REMARK  210  A    between atoms: _517  and  _518
REMARK  211  A    between atoms: _517  and  _520
REMARK  212  A    between atoms: _520  and  _521
REMARK  213  A    between atoms: _524  and  _526
REMARK  214  A    between atoms: _526  and  _527
REMARK  215  A    between atoms: _529  and  _531
REMARK  216  A    between atoms: _531  and  _532
REMARK  217  A    between atoms: _531  and  _534
REMARK  218  A    between atoms: _534  and  _535
REMARK  219  A    between atoms: _540  and  _542
REMARK  220  A    between atoms: _542  and  _543
REMARK  221  A    between atoms: _542  and  _545
REMARK  222  A    between atoms: _545  and  _546
REMARK  223  A    between atoms: _546  and  _547
REMARK  224  A    between atoms: _554  and  _555
REMARK  225  A    between atoms: _555  and  _571
REMARK  226  A    between atoms: _556  and  _558
REMARK  227  A    between atoms: _558  and  _559
REMARK  228  A    between atoms: _559  and  _560
REMARK  229  A    between atoms: _564  and  _566
REMARK  230  A    between atoms: _566  and  _567
REMARK  231  A    between atoms: _566  and  _574
REMARK  232  A    between atoms: _567  and  _568
REMARK  233  A    between atoms: _568  and  _569
REMARK  234  A    between atoms: _569  and  _570
REMARK  235  A    between atoms: _570  and  _571
REMARK  236  A    between atoms: _576  and  _578
REMARK  237  A    between atoms: _578  and  _579
REMARK  238  A    between atoms: _578  and  _581
REMARK  239  A    between atoms: _581  and  _582
REMARK  240  A    between atoms: _585  and  _587
REMARK  241  A    between atoms: _587  and  _588
REMARK  242  A    between atoms: _590  and  _592
REMARK  243  A    between atoms: _592  and  _593
REMARK  244  A    between atoms: _596  and  _598
REMARK  245  A    between atoms: _598  and  _599
REMARK  246  A    between atoms: _598  and  _601
REMARK  247  A    between atoms: _601  and  _602
REMARK  248  A    between atoms: _607  and  _608
REMARK                            x       y       z     vdW  Elec       q    Type
REMARK                         _______ _______ _______ _____ _____    ______ ____
ROOT
ATOM      1  C   TYR A   1      33.473  32.009  20.621  0.00  0.00    +0.239 C 
ATOM      2  N   LYS A   2      32.434  32.118  21.449  0.00  0.00    -0.298 N 
ATOM      3  H   LYS A   2      32.570  32.579  22.371  0.00  0.00    +0.150 HD
ATOM      4  O   TYR A   1      33.406  31.466  19.519  0.00  0.00    -0.274 OA
ENDROOT
BRANCH   1   5
ATOM      5  CA  TYR A   1      34.800  32.595  21.094  0.00  0.00    +0.149 C 
BRANCH   5   6
ATOM      6  N   TYR A   1      34.653  33.709  22.041  0.00  0.00    -0.238 NA
ATOM      7  H   TYR A   1      34.940  33.590  23.034  0.00  0.00    +0.142 HD
ENDBRANCH   5   6
BRANCH   5   8
ATOM      8  CB  TYR A   1      35.767  31.515  21.596  0.00  0.00    +0.053 C 
BRANCH   8   9
ATOM      9  CG  TYR A   1      35.190  30.384  22.426  0.00  0.00    -0.020 A 
ATOM     10  CD2 TYR A   1      35.271  30.403  23.820  0.00  0.00    -0.001 A 
ATOM     11  CE2 TYR A   1      34.775  29.354  24.584  0.00  0.00    +0.036 A 
ATOM     12  CZ  TYR A   1      34.215  28.261  23.959  0.00  0.00    +0.134 A 
ATOM     13  CE1 TYR A   1      34.132  28.210  22.576  0.00  0.00    +0.036 A 
ATOM     14  CD1 TYR A   1      34.630  29.260  21.818  0.00  0.00    -0.001 A 
BRANCH  12  15
ATOM     15  OH  TYR A   1      33.715  27.214  24.715  0.00  0.00    -0.506 OA
ATOM     16  HH  TYR A   1      33.352  26.517  24.112  0.00  0.00    +0.292 HD
ENDBRANCH  12  15
ENDBRANCH   8   9
ENDBRANCH   5   8
ENDBRANCH   1   5
BRANCH   2  17
ATOM     17  CA  LYS A   2      31.105  31.607  21.097  0.00  0.00    +0.137 C 
BRANCH  17  18
ATOM     18  C   LYS A   2      30.374  32.567  20.143  0.00  0.00    +0.227 C 
ATOM     19  O   LYS A   2      29.338  32.223  19.567  0.00  0.00    -0.286 OA
ENDBRANCH  17  18
BRANCH  17  20
ATOM     20  CB  LYS A   2      30.283  31.322  22.364  0.00  0.00    +0.028 C 
BRANCH  20  21
ATOM     21  CG  LYS A   2      30.795  30.100  23.162  0.00  0.00    -0.000 C 
BRANCH  21  22
ATOM     22  CD  LYS A   2      30.280  30.090  24.607  0.00  0.00    -0.024 C 
BRANCH  22  23
ATOM     23  CE  LYS A   2      30.859  28.947  25.447  0.00  0.00    -0.086 C 
BRANCH  23  24
ATOM     24  NZ  LYS A   2      30.421  27.592  24.955  0.00  0.00    +0.380 N 
ATOM     25  HZ1 LYS A   2      30.840  26.854  25.557  0.00  0.00    -0.089 HD
ATOM     26  HZ2 LYS A   2      29.384  27.528  24.997  0.00  0.00    -0.089 HD
ATOM     27  HZ3 LYS A   2      30.738  27.462  23.973  0.00  0.00    -0.089 HD
ENDBRANCH  23  24
ENDBRANCH  22  23
ENDBRANCH  21  22
ENDBRANCH  20  21
ENDBRANCH  17  20
ENDBRANCH   2  17
TORSDOF 12
REMARK  Name = ../refined-set-2016/3g2n/3g2n_pocket.pdb
REMARK  248 active torsions:
REMARK  status: ('A' for Active; 'I' for Inactive)
REMARK    1  A    between atoms: _1  and  _3
REMARK    2  A    between atoms: _3  and  _4
REMARK    3  A    between atoms: _3  and  _6
REMARK    4  A    between atoms: _6  and  _7
REMARK    5  A    between atoms: _12  and  _13
REMARK    6  A    between atoms: _15  and  _17
REMARK    7  A    between atoms: _17  and  _18
REMARK    8  A    between atoms: _17  and  _20
REMARK    9  A    between atoms: _20  and  _21
REMARK   10  A    between atoms: _21  and  _22
REMARK   11  A    between atoms: _25  and  _27
REMARK   12  A    between atoms: _27  and  _28
REMARK   13  A    between atoms: _27  and  _30
REMARK   14  A    between atoms: _30  and  _31
REMARK   15  A    between atoms: _36  and  _38
REMARK   16  A    between atoms: _38  and  _39
REMARK   17  A    between atoms: _41  and  _43
REMARK   18  A    between atoms: _43  and  _44
REMARK   19  A    between atoms: _46  and  _48
REMARK   20  A    between atoms: _48  and  _49
REMARK   21  A    between atoms: _48  and  _51
REMARK   22  A    between atoms: _51  and  _52
REMARK   23  A    between atoms: _55  and  _57
REMARK   24  A    between atoms: _57  and  _58
REMARK   25  A    between atoms: _60  and  _62
REMARK   26  A    between atoms: _62  and  _63
REMARK   27  A    between atoms: _62  and  _65
REMARK   28  A    between atoms: _65  and  _66
REMARK   29  A    between atoms: _66  and  _67
REMARK   30  A    between atoms: _67  and  _68
REMARK   31  A    between atoms: _77  and  _79
REMARK   32  A    between atoms: _79  and  _80
REMARK   33  A    between atoms: _79  and  _82
REMARK   34  A    between atoms: _82  and  _83
REMARK   35  A    between atoms: _86  and  _88
REMARK   36  A    between atoms: _88  and  _89
REMARK   37  A    between atoms: _92  and  _94
REMARK   38  A    between atoms: _94  and  _95
REMARK   39  A    between atoms: _94  and  _97
REMARK   40  A    between atoms: _97  and  _98
REMARK   41  A    between atoms: _104  and  _106
REMARK   42  A    between atoms: _106  and  _107
REMARK   43  A    between atoms: _106  and  _109
REMARK   44  A    between atoms: _109  and  _110
REMARK   45  A    between atoms: _115  and  _117
REMARK   46  A    between atoms: _117  and  _118
REMARK   47  A    between atoms: _117  and  _120
REMARK   48  A    between atoms: _120  and  _121
REMARK   49  A    between atoms: _124  and  _126
REMARK   50  A    between atoms: _126  and  _127
REMARK   51  A    between atoms: _126  and  _129
REMARK   52  A    between atoms: _129  and  _130
REMARK   53  A    between atoms: _135  and  _137
REMARK   54  A    between atoms: _137  and  _138
REMARK   55  A    between atoms: _137  and  _140
REMARK   56  A    between atoms: _140  and  _141
REMARK   57  A    between atoms: _147  and  _149
REMARK   58  A    between atoms: _149  and  _150
REMARK   59  A    between atoms: _149  and  _152
REMARK   60  A    between atoms: _152  and  _153
REMARK   61  A    between atoms: _159  and  _161
REMARK   62  A    between atoms: _161  and  _162
REMARK   63  A    between atoms: _161  and  _164
REMARK   64  A    between atoms: _164  and  _165
REMARK   65  A    between atoms: _165  and  _166
REMARK   66  A    between atoms: _166  and  _167
REMARK   67  A    between atoms: _176  and  _178
REMARK   68  A    between atoms: _178  and  _179
REMARK   69  A    between atoms: _178  and  _181
REMARK   70  A    between atoms: _181  and  _182
REMARK   71  A    between atoms: _187  and  _189
REMARK   72  A    between atoms: _189  and  _190
REMARK   73  A    between atoms: _189  and  _192
REMARK   74  A    between atoms: _192  and  _193
REMARK   75  A    between atoms: _196  and  _198
REMARK   76  A    between atoms: _198  and  _199
REMARK   77  A    between atoms: _198  and  _201
REMARK   78  A    between atoms: _201  and  _202
REMARK   79  A    between atoms: _205  and  _207
REMARK   80  A    between atoms: _207  and  _208
REMARK   81  A    between atoms: _207  and  _210
REMARK   82  A    between atoms: _210  and  _211
REMARK   83  A    between atoms: _216  and  _218
REMARK   84  A    between atoms: _218  and  _219
REMARK   85  A    between atoms: _218  and  _221
REMARK   86  A    between atoms: _221  and  _222
REMARK   87  A    between atoms: _227  and  _228
REMARK   88  A    between atoms: _230  and  _232
REMARK   89  A    between atoms: _232  and  _233
REMARK   90  A    between atoms: _232  and  _235
REMARK   91  A    between atoms: _235  and  _236
REMARK   92  A    between atoms: _239  and  _241
REMARK   93  A    between atoms: _241  and  _242
REMARK   94  A    between atoms: _241  and  _244
REMARK   95  A    between atoms: _244  and  _245
REMARK   96  A    between atoms: _250  and  _252
REMARK   97  A    between atoms: _252  and  _253
REMARK   98  A    between atoms: _252  and  _255
REMARK   99  A    between atoms: _255  and  _256
REMARK  100  A    between atoms: _261  and  _263
REMARK  101  A    between atoms: _263  and  _264
REMARK  102  A    between atoms: _263  and  _266
REMARK  103  A    between atoms: _266  and  _267
REMARK  104  A    between atoms: _270  and  _272
REMARK  105  A    between atoms: _272  and  _273
REMARK  106  A    between atoms: _272  and  _275
REMARK  107  A    between atoms: _278  and  _280
REMARK  108  A    between atoms: _280  and  _281
REMARK  109  A    between atoms: _280  and  _283
REMARK  110  A    between atoms: _283  and  _284
REMARK  111  A    between atoms: _287  and  _289
REMARK  112  A    between atoms: _289  and  _290
REMARK  113  A    between atoms: _289  and  _292
REMARK  114  A    between atoms: _292  and  _293
REMARK  115  A    between atoms: _293  and  _294
REMARK  116  A    between atoms: _297  and  _299
REMARK  117  A    between atoms: _299  and  _300
REMARK  118  A    between atoms: _303  and  _305
REMARK  119  A    between atoms: _305  and  _306
REMARK  120  A    between atoms: _305  and  _308
REMARK  121  A    between atoms: _308  and  _309
REMARK  122  A    between atoms: _312  and  _314
REMARK  123  A    between atoms: _314  and  _315
REMARK  124  A    between atoms: _314  and  _317
REMARK  125  A    between atoms: _317  and  _318
REMARK  126  A    between atoms: _318  and  _319
REMARK  127  A    between atoms: _322  and  _324
REMARK  128  A    between atoms: _324  and  _325
REMARK  129  A    between atoms: _324  and  _327
REMARK  130  A    between atoms: _327  and  _328
REMARK  131  A    between atoms: _333  and  _335
REMARK  132  A    between atoms: _335  and  _336
REMARK  133  A    between atoms: _338  and  _340
REMARK  134  A    between atoms: _340  and  _341
REMARK  135  A    between atoms: _340  and  _343
REMARK  136  A    between atoms: _346  and  _348
REMARK  137  A    between atoms: _348  and  _349
REMARK  138  A    between atoms: _352  and  _354
REMARK  139  A    between atoms: _354  and  _355
REMARK  140  A    between atoms: _354  and  _357
REMARK  141  A    between atoms: _357  and  _358
REMARK  142  A    between atoms: _363  and  _365
REMARK  143  A    between atoms: _365  and  _366
REMARK  144  A    between atoms: _365  and  _368
REMARK  145  A    between atoms: _368  and  _369
REMARK  146  A    between atoms: _369  and  _370
REMARK  147  A    between atoms: _370  and  _371
REMARK  148  A    between atoms: _371  and  _372
REMARK  149  A    between atoms: _376  and  _378
REMARK  150  A    between atoms: _378  and  _379
REMARK  151  A    between atoms: _378  and  _381
REMARK  152  A    between atoms: _381  and  _382
REMARK  153  A    between atoms: _385  and  _387
REMARK  154  A    between atoms: _387  and  _388
REMARK  155  A    between atoms: _387  and  _390
REMARK  156  A    between atoms: _390  and  _391
REMARK  157  A    between atoms: _396  and  _398
REMARK  158  A    between atoms: _398  and  _399
REMARK  159  A    between atoms: _401  and  _403
REMARK  160  A    between atoms: _403  and  _404
REMARK  161  A    between atoms: _403  and  _406
REMARK  162  A    between atoms: _406  and  _407
REMARK  163  A    between atoms: _407  and  _408
REMARK  164  A    between atoms: _408  and  _409
REMARK  165  A    between atoms: _409  and  _410
REMARK  166  A    between atoms: _414  and  _416
REMARK  167  A    between atoms: _416  and  _417
REMARK  168  A    between atoms: _416  and  _419
REMARK  169  A    between atoms: _419  and  _420
REMARK  170  A    between atoms: _420  and  _421
REMARK  171  A    between atoms: _421  and  _422
REMARK  172  A    between atoms: _431  and  _433
REMARK  173  A    between atoms: _433  and  _434
REMARK  174  A    between atoms: _433  and  _436
REMARK  175  A    between atoms: _436  and  _437
REMARK  176  A    between atoms: _442  and  _444
REMARK  177  A    between atoms: _444  and  _445
REMARK  178  A    between atoms: _444  and  _447
REMARK  179  A    between atoms: _447  and  _448
REMARK  180  A    between atoms: _453  and  _454
REMARK  181  A    between atoms: _456  and  _458
REMARK  182  A    between atoms: _458  and  _459
REMARK  183  A    between atoms: _458  and  _461
REMARK  184  A    between atoms: _461  and  _462
REMARK  185  A    between atoms: _462  and  _463
REMARK  186  A    between atoms: _463  and  _464
REMARK  187  A    between atoms: _464  and  _465
REMARK  188  A    between atoms: _469  and  _471
REMARK  189  A    between atoms: _471  and  _472
REMARK  190  A    between atoms: _471  and  _474
REMARK  191  A    between atoms: _474  and  _475
REMARK  192  A    between atoms: _477  and  _479
REMARK  193  A    between atoms: _479  and  _480
REMARK  194  A    between atoms: _479  and  _482
REMARK  195  A    between atoms: _482  and  _483
REMARK  196  A    between atoms: _486  and  _488
REMARK  197  A    between atoms: _488  and  _489
REMARK  198  A    between atoms: _488  and  _491
REMARK  199  A    between atoms: _491  and  _492
REMARK  200  A    between atoms: _492  and  _493
REMARK  201  A    between atoms: _496  and  _498
REMARK  202  A    between atoms: _498  and  _499
REMARK  203  A    between atoms: _502  and  _504
REMARK  204  A    between atoms: _504  and  _505
REMARK  205  A    between atoms: _504  and  _507
REMARK  206  A    between atoms: _507  and  _508
REMARK  207  A    between atoms: _510  and  _512
REMARK  208  A    between atoms: _512  and  _513
REMARK  209  A    between atoms: _515  and  _517
REMARK  210  A    between atoms: _517  and  _518
REMARK  211  A    between atoms: _517  and  _520
REMARK  212  A    between atoms: _520  and  _521
REMARK  213  A    between atoms: _524  and  _526
REMARK  214  A    between atoms: _526  and  _527
REMARK  215  A    between atoms: _529  and  _531
REMARK  216  A    between atoms: _531  and  _532
REMARK  217  A    between atoms: _531  and  _534
REMARK  218  A    between atoms: _534  and  _535
REMARK  219  A    between atoms: _540  and  _542
REMARK  220  A    between atoms: _542  and  _543
REMARK  221  A    between atoms: _542  and  _545
REMARK  222  A    between atoms: _545  and  _546
REMARK  223  A    between atoms: _546  and  _547
REMARK  224  A    between atoms: _554  and  _555
REMARK  225  A    between atoms: _555  and  _571
REMARK  226  A    between atoms: _556  and  _558
REMARK  227  A    between atoms: _558  and  _559
REMARK  228  A    between atoms: _559  and  _560
REMARK  229  A    between atoms: _564  and  _566
REMARK  230  A    between atoms: _566  and  _567
REMARK  231  A    between atoms: _566  and  _574
REMARK  232  A    between atoms: _567  and  _568
REMARK  233  A    between atoms: _568  and  _569
REMARK  234  A    between atoms: _569  and  _570
REMARK  235  A    between atoms: _570  and  _571
REMARK  236  A    between atoms: _576  and  _578
REMARK  237  A    between atoms: _578  and  _579
REMARK  238  A    between atoms: _578  and  _581
REMARK  239  A    between atoms: _581  and  _582
REMARK  240  A    between atoms: _585  and  _587
REMARK  241  A    between atoms: _587  and  _588
REMARK  242  A    between atoms: _590  and  _592
REMARK  243  A    between atoms: _592  and  _593
REMARK  244  A    between atoms: _596  and  _598
REMARK  245  A    between atoms: _598  and  _599
REMARK  246  A    between atoms: _598  and  _601
REMARK  247  A    between atoms: _601  and  _602
REMARK  248  A    between atoms: _607  and  _608
REMARK                            x       y       z     vdW  Elec       q    Type
REMARK                         _______ _______ _______ _____ _____    ______ ____
ROOT
ATOM      1  CA  SER A   1      31.899  29.461  17.423  0.00  0.00    +0.163 C 
ENDROOT
BRANCH   1   2
ATOM      2  N   SER A   1      30.525  29.239  16.959  0.00  0.00    -0.237 NA
ATOM      3  H   SER A   1      30.021  28.390  17.285  0.00  0.00    +0.142 HD
ENDBRANCH   1   2
BRANCH   1   4
ATOM      4  C   SER A   1      32.874  29.462  16.236  0.00  0.00    +0.227 C 
ATOM      5  O   SER A   1      32.646  28.765  15.249  0.00  0.00    -0.287 OA
ENDBRANCH   1   4
BRANCH   1   6
ATOM      6  CB  SER A   1      32.279  28.338  18.379  0.00  0.00    +0.162 C 
BRANCH   6   7
ATOM      7  OG  SER A   1      32.114  27.082  17.725  0.00  0.00    -0.380 OA
ATOM      8  H   SER A   1      32.698  27.048  16.926  0.00  0.00    +0.211 HD
ENDBRANCH   6   7
ENDBRANCH   1   6
TORSDOF 4
REMARK  Name = ../refined-set-2016/3g2n/3g2n_pocket.pdb
REMARK  248 active torsions:
REMARK  status: ('A' for Active; 'I' for Inactive)
REMARK    1  A    between atoms: _1  and  _3
REMARK    2  A    between atoms: _3  and  _4
REMARK    3  A    between atoms: _3  and  _6
REMARK    4  A    between atoms: _6  and  _7
REMARK    5  A    between atoms: _12  and  _13
REMARK    6  A    between atoms: _15  and  _17
REMARK    7  A    between atoms: _17  and  _18
REMARK    8  A    between atoms: _17  and  _20
REMARK    9  A    between atoms: _20  and  _21
REMARK   10  A    between atoms: _21  and  _22
REMARK   11  A    between atoms: _25  and  _27
REMARK   12  A    between atoms: _27  and  _28
REMARK   13  A    between atoms: _27  and  _30
REMARK   14  A    between atoms: _30  and  _31
REMARK   15  A    between atoms: _36  and  _38
REMARK   16  A    between atoms: _38  and  _39
REMARK   17  A    between atoms: _41  and  _43
REMARK   18  A    between atoms: _43  and  _44
REMARK   19  A    between atoms: _46  and  _48
REMARK   20  A    between atoms: _48  and  _49
REMARK   21  A    between atoms: _48  and  _51
REMARK   22  A    between atoms: _51  and  _52
REMARK   23  A    between atoms: _55  and  _57
REMARK   24  A    between atoms: _57  and  _58
REMARK   25  A    between atoms: _60  and  _62
REMARK   26  A    between atoms: _62  and  _63
REMARK   27  A    between atoms: _62  and  _65
REMARK   28  A    between atoms: _65  and  _66
REMARK   29  A    between atoms: _66  and  _67
REMARK   30  A    between atoms: _67  and  _68
REMARK   31  A    between atoms: _77  and  _79
REMARK   32  A    between atoms: _79  and  _80
REMARK   33  A    between atoms: _79  and  _82
REMARK   34  A    between atoms: _82  and  _83
REMARK   35  A    between atoms: _86  and  _88
REMARK   36  A    between atoms: _88  and  _89
REMARK   37  A    between atoms: _92  and  _94
REMARK   38  A    between atoms: _94  and  _95
REMARK   39  A    between atoms: _94  and  _97
REMARK   40  A    between atoms: _97  and  _98
REMARK   41  A    between atoms: _104  and  _106
REMARK   42  A    between atoms: _106  and  _107
REMARK   43  A    between atoms: _106  and  _109
REMARK   44  A    between atoms: _109  and  _110
REMARK   45  A    between atoms: _115  and  _117
REMARK   46  A    between atoms: _117  and  _118
REMARK   47  A    between atoms: _117  and  _120
REMARK   48  A    between atoms: _120  and  _121
REMARK   49  A    between atoms: _124  and  _126
REMARK   50  A    between atoms: _126  and  _127
REMARK   51  A    between atoms: _126  and  _129
REMARK   52  A    between atoms: _129  and  _130
REMARK   53  A    between atoms: _135  and  _137
REMARK   54  A    between atoms: _137  and  _138
REMARK   55  A    between atoms: _137  and  _140
REMARK   56  A    between atoms: _140  and  _141
REMARK   57  A    between atoms: _147  and  _149
REMARK   58  A    between atoms: _149  and  _150
REMARK   59  A    between atoms: _149  and  _152
REMARK   60  A    between atoms: _152  and  _153
REMARK   61  A    between atoms: _159  and  _161
REMARK   62  A    between atoms: _161  and  _162
REMARK   63  A    between atoms: _161  and  _164
REMARK   64  A    between atoms: _164  and  _165
REMARK   65  A    between atoms: _165  and  _166
REMARK   66  A    between atoms: _166  and  _167
REMARK   67  A    between atoms: _176  and  _178
REMARK   68  A    between atoms: _178  and  _179
REMARK   69  A    between atoms: _178  and  _181
REMARK   70  A    between atoms: _181  and  _182
REMARK   71  A    between atoms: _187  and  _189
REMARK   72  A    between atoms: _189  and  _190
REMARK   73  A    between atoms: _189  and  _192
REMARK   74  A    between atoms: _192  and  _193
REMARK   75  A    between atoms: _196  and  _198
REMARK   76  A    between atoms: _198  and  _199
REMARK   77  A    between atoms: _198  and  _201
REMARK   78  A    between atoms: _201  and  _202
REMARK   79  A    between atoms: _205  and  _207
REMARK   80  A    between atoms: _207  and  _208
REMARK   81  A    between atoms: _207  and  _210
REMARK   82  A    between atoms: _210  and  _211
REMARK   83  A    between atoms: _216  and  _218
REMARK   84  A    between atoms: _218  and  _219
REMARK   85  A    between atoms: _218  and  _221
REMARK   86  A    between atoms: _221  and  _222
REMARK   87  A    between atoms: _227  and  _228
REMARK   88  A    between atoms: _230  and  _232
REMARK   89  A    between atoms: _232  and  _233
REMARK   90  A    between atoms: _232  and  _235
REMARK   91  A    between atoms: _235  and  _236
REMARK   92  A    between atoms: _239  and  _241
REMARK   93  A    between atoms: _241  and  _242
REMARK   94  A    between atoms: _241  and  _244
REMARK   95  A    between atoms: _244  and  _245
REMARK   96  A    between atoms: _250  and  _252
REMARK   97  A    between atoms: _252  and  _253
REMARK   98  A    between atoms: _252  and  _255
REMARK   99  A    between atoms: _255  and  _256
REMARK  100  A    between atoms: _261  and  _263
REMARK  101  A    between atoms: _263  and  _264
REMARK  102  A    between atoms: _263  and  _266
REMARK  103  A    between atoms: _266  and  _267
REMARK  104  A    between atoms: _270  and  _272
REMARK  105  A    between atoms: _272  and  _273
REMARK  106  A    between atoms: _272  and  _275
REMARK  107  A    between atoms: _278  and  _280
REMARK  108  A    between atoms: _280  and  _281
REMARK  109  A    between atoms: _280  and  _283
REMARK  110  A    between atoms: _283  and  _284
REMARK  111  A    between atoms: _287  and  _289
REMARK  112  A    between atoms: _289  and  _290
REMARK  113  A    between atoms: _289  and  _292
REMARK  114  A    between atoms: _292  and  _293
REMARK  115  A    between atoms: _293  and  _294
REMARK  116  A    between atoms: _297  and  _299
REMARK  117  A    between atoms: _299  and  _300
REMARK  118  A    between atoms: _303  and  _305
REMARK  119  A    between atoms: _305  and  _306
REMARK  120  A    between atoms: _305  and  _308
REMARK  121  A    between atoms: _308  and  _309
REMARK  122  A    between atoms: _312  and  _314
REMARK  123  A    between atoms: _314  and  _315
REMARK  124  A    between atoms: _314  and  _317
REMARK  125  A    between atoms: _317  and  _318
REMARK  126  A    between atoms: _318  and  _319
REMARK  127  A    between atoms: _322  and  _324
REMARK  128  A    between atoms: _324  and  _325
REMARK  129  A    between atoms: _324  and  _327
REMARK  130  A    between atoms: _327  and  _328
REMARK  131  A    between atoms: _333  and  _335
REMARK  132  A    between atoms: _335  and  _336
REMARK  133  A    between atoms: _338  and  _340
REMARK  134  A    between atoms: _340  and  _341
REMARK  135  A    between atoms: _340  and  _343
REMARK  136  A    between atoms: _346  and  _348
REMARK  137  A    between atoms: _348  and  _349
REMARK  138  A    between atoms: _352  and  _354
REMARK  139  A    between atoms: _354  and  _355
REMARK  140  A    between atoms: _354  and  _357
REMARK  141  A    between atoms: _357  and  _358
REMARK  142  A    between atoms: _363  and  _365
REMARK  143  A    between atoms: _365  and  _366
REMARK  144  A    between atoms: _365  and  _368
REMARK  145  A    between atoms: _368  and  _369
REMARK  146  A    between atoms: _369  and  _370
REMARK  147  A    between atoms: _370  and  _371
REMARK  148  A    between atoms: _371  and  _372
REMARK  149  A    between atoms: _376  and  _378
REMARK  150  A    between atoms: _378  and  _379
REMARK  151  A    between atoms: _378  and  _381
REMARK  152  A    between atoms: _381  and  _382
REMARK  153  A    between atoms: _385  and  _387
REMARK  154  A    between atoms: _387  and  _388
REMARK  155  A    between atoms: _387  and  _390
REMARK  156  A    between atoms: _390  and  _391
REMARK  157  A    between atoms: _396  and  _398
REMARK  158  A    between atoms: _398  and  _399
REMARK  159  A    between atoms: _401  and  _403
REMARK  160  A    between atoms: _403  and  _404
REMARK  161  A    between atoms: _403  and  _406
REMARK  162  A    between atoms: _406  and  _407
REMARK  163  A    between atoms: _407  and  _408
REMARK  164  A    between atoms: _408  and  _409
REMARK  165  A    between atoms: _409  and  _410
REMARK  166  A    between atoms: _414  and  _416
REMARK  167  A    between atoms: _416  and  _417
REMARK  168  A    between atoms: _416  and  _419
REMARK  169  A    between atoms: _419  and  _420
REMARK  170  A    between atoms: _420  and  _421
REMARK  171  A    between atoms: _421  and  _422
REMARK  172  A    between atoms: _431  and  _433
REMARK  173  A    between atoms: _433  and  _434
REMARK  174  A    between atoms: _433  and  _436
REMARK  175  A    between atoms: _436  and  _437
REMARK  176  A    between atoms: _442  and  _444
REMARK  177  A    between atoms: _444  and  _445
REMARK  178  A    between atoms: _444  and  _447
REMARK  179  A    between atoms: _447  and  _448
REMARK  180  A    between atoms: _453  and  _454
REMARK  181  A    between atoms: _456  and  _458
REMARK  182  A    between atoms: _458  and  _459
REMARK  183  A    between atoms: _458  and  _461
REMARK  184  A    between atoms: _461  and  _462
REMARK  185  A    between atoms: _462  and  _463
REMARK  186  A    between atoms: _463  and  _464
REMARK  187  A    between atoms: _464  and  _465
REMARK  188  A    between atoms: _469  and  _471
REMARK  189  A    between atoms: _471  and  _472
REMARK  190  A    between atoms: _471  and  _474
REMARK  191  A    between atoms: _474  and  _475
REMARK  192  A    between atoms: _477  and  _479
REMARK  193  A    between atoms: _479  and  _480
REMARK  194  A    between atoms: _479  and  _482
REMARK  195  A    between atoms: _482  and  _483
REMARK  196  A    between atoms: _486  and  _488
REMARK  197  A    between atoms: _488  and  _489
REMARK  198  A    between atoms: _488  and  _491
REMARK  199  A    between atoms: _491  and  _492
REMARK  200  A    between atoms: _492  and  _493
REMARK  201  A    between atoms: _496  and  _498
REMARK  202  A    between atoms: _498  and  _499
REMARK  203  A    between atoms: _502  and  _504
REMARK  204  A    between atoms: _504  and  _505
REMARK  205  A    between atoms: _504  and  _507
REMARK  206  A    between atoms: _507  and  _508
REMARK  207  A    between atoms: _510  and  _512
REMARK  208  A    between atoms: _512  and  _513
REMARK  209  A    between atoms: _515  and  _517
REMARK  210  A    between atoms: _517  and  _518
REMARK  211  A    between atoms: _517  and  _520
REMARK  212  A    between atoms: _520  and  _521
REMARK  213  A    between atoms: _524  and  _526
REMARK  214  A    between atoms: _526  and  _527
REMARK  215  A    between atoms: _529  and  _531
REMARK  216  A    between atoms: _531  and  _532
REMARK  217  A    between atoms: _531  and  _534
REMARK  218  A    between atoms: _534  and  _535
REMARK  219  A    between atoms: _540  and  _542
REMARK  220  A    between atoms: _542  and  _543
REMARK  221  A    between atoms: _542  and  _545
REMARK  222  A    between atoms: _545  and  _546
REMARK  223  A    between atoms: _546  and  _547
REMARK  224  A    between atoms: _554  and  _555
REMARK  225  A    between atoms: _555  and  _571
REMARK  226  A    between atoms: _556  and  _558
REMARK  227  A    between atoms: _558  and  _559
REMARK  228  A    between atoms: _559  and  _560
REMARK  229  A    between atoms: _564  and  _566
REMARK  230  A    between atoms: _566  and  _567
REMARK  231  A    between atoms: _566  and  _574
REMARK  232  A    between atoms: _567  and  _568
REMARK  233  A    between atoms: _568  and  _569
REMARK  234  A    between atoms: _569  and  _570
REMARK  235  A    between atoms: _570  and  _571
REMARK  236  A    between atoms: _576  and  _578
REMARK  237  A    between atoms: _578  and  _579
REMARK  238  A    between atoms: _578  and  _581
REMARK  239  A    between atoms: _581  and  _582
REMARK  240  A    between atoms: _585  and  _587
REMARK  241  A    between atoms: _587  and  _588
REMARK  242  A    between atoms: _590  and  _592
REMARK  243  A    between atoms: _592  and  _593
REMARK  244  A    between atoms: _596  and  _598
REMARK  245  A    between atoms: _598  and  _599
REMARK  246  A    between atoms: _598  and  _601
REMARK  247  A    between atoms: _601  and  _602
REMARK  248  A    between atoms: _607  and  _608
REMARK                            x       y       z     vdW  Elec       q    Type
REMARK                         _______ _______ _______ _____ _____    ______ ____
ROOT
ATOM      1  CA  GLY A   7      23.888  22.337  23.896  0.00  0.00    +0.176 C 
ENDROOT
BRANCH   1   2
ATOM      2  C   GLY A   7      23.421  22.001  22.490  0.00  0.00    +0.243 C 
ATOM      3  O   GLY A   7      22.236  21.727  22.273  0.00  0.00    -0.273 OA
ATOM      4  N   ASN A   8      24.357  22.002  21.538  0.00  0.00    -0.297 N 
ATOM      5  H   ASN A   8      25.328  22.284  21.781  0.00  0.00    +0.150 HD
BRANCH   4   6
ATOM      6  CA  ASN A   8      24.049  21.615  20.157  0.00  0.00    +0.158 C 
BRANCH   6   7
ATOM      7  C   ASN A   8      23.247  20.311  20.052  0.00  0.00    +0.241 C 
ATOM      8  N   MET A   9      23.689  19.293  20.788  0.00  0.00    -0.297 N 
ATOM      9  H   MET A   9      24.520  19.440  21.396  0.00  0.00    +0.150 HD
ATOM     10  O   ASN A   8      22.237  20.251  19.341  0.00  0.00    -0.273 OA
BRANCH   8  11
ATOM     11  CA  MET A   9      23.055  17.984  20.774  0.00  0.00    +0.149 C 
BRANCH  11  12
ATOM     12  C   MET A   9      21.649  18.019  21.377  0.00  0.00    +0.241 C 
ATOM     13  N   UNK A  10      21.463  18.823  22.429  0.00  0.00    -0.298 N 
ATOM     14  H   UNK A  10      22.276  19.356  22.798  0.00  0.00    +0.150 HD
ATOM     15  O   MET A   9      20.755  17.329  20.884  0.00  0.00    -0.273 OA
BRANCH  13  16
ATOM     16  C   UNK A  10      20.163  18.986  23.085  0.00  0.00    +0.137 C 
BRANCH  16  17
ATOM     17  C   UNK A  10      19.109  19.525  22.120  0.00  0.00    +0.227 C 
ATOM     18  O   UNK A  10      17.982  19.022  22.092  0.00  0.00    -0.286 OA
ENDBRANCH  16  17
BRANCH  16  19
ATOM     19  C   UNK A  10      20.265  19.915  24.305  0.00  0.00    +0.028 C 
BRANCH  19  20
ATOM     20  C   UNK A  10      21.253  19.474  25.385  0.00  0.00    -0.000 C 
BRANCH  20  21
ATOM     21  C   UNK A  10      21.441  20.550  26.440  0.00  0.00    -0.023 C 
BRANCH  21  22
ATOM     22  C   UNK A  10      22.694  20.276  27.287  0.00  0.00    -0.081 C 
BRANCH  22  23
ATOM     23  N   UNK A  10      22.939  21.380  28.264  0.00  0.00    +0.387 N 
ATOM     24  H   UNK A  10      22.133  22.038  28.248  0.00  0.00    -0.084 HD
ATOM     25  H   UNK A  10      23.038  20.978  29.218  0.00  0.00    -0.084 HD
BRANCH  23  26
ATOM     26  C   UNK A  10      24.057  22.043  27.945  0.00  0.00    -0.051 C 
BRANCH  26  27
ATOM     27  C   UNK A  10      24.262  23.270  28.800  0.00  0.00    -0.007 C 
ATOM     28  C   UNK A  10      25.394  24.070  28.592  0.00  0.00    +0.023 C 
ATOM     29  C   UNK A  10      25.603  25.210  29.357  0.00  0.00    +0.091 C 
ATOM     30  N   UNK A  10      24.704  25.544  30.348  0.00  0.00    -0.263 NA
ATOM     31  C   UNK A  10      23.593  24.759  30.582  0.00  0.00    +0.164 C 
ATOM     32  C   UNK A  10      22.644  25.152  31.669  0.00  0.00    +0.035 C 
ATOM     33  C   UNK A  10      23.357  23.618  29.815  0.00  0.00    +0.189 C 
ATOM     34  O   UNK A  10      22.349  22.926  30.042  0.00  0.00    -0.290 OA
BRANCH  28  35
ATOM     35  C   UNK A  10      26.374  23.759  27.496  0.00  0.00    +0.181 C 
BRANCH  35  36
ATOM     36  O   UNK A  10      26.021  24.435  26.254  0.00  0.00    -0.265 OA
BRANCH  36  37
ATOM     37  P   UNK A  10      27.087  24.721  25.080  0.00  0.00    +0.533 P 
ATOM     38  O   UNK A  10      27.604  23.385  24.685  0.00  0.00    -0.115 OA
ATOM     39  O   UNK A  10      28.096  25.585  25.727  0.00  0.00    -0.115 OA
ATOM     40  O   UNK A  10      26.233  25.396  24.085  0.00  0.00    -0.222 OA
ENDBRANCH  36  37
ENDBRANCH  35  36
ENDBRANCH  28  35
ENDBRANCH  26  27
ENDBRANCH  23  26
ENDBRANCH  22  23
ENDBRANCH  21  22
ENDBRANCH  20  21
ENDBRANCH  19  20
ENDBRANCH  16  19
ENDBRANCH  13  16
ENDBRANCH  11  12
BRANCH  11  41
ATOM     41  CB  MET A   9      23.918  16.965  21.513  0.00  0.00    +0.041 C 
BRANCH  41  42
ATOM     42  CG  MET A   9      25.331  16.851  20.986  0.00  0.00    +0.060 C 
BRANCH  42  43
ATOM     43  SD  MET A   9      26.354  15.974  22.156  0.00  0.00    -0.139 S 
ATOM     44  CE  MET A   9      27.971  16.171  21.420  0.00  0.00    +0.069 C 
ENDBRANCH  42  43
ENDBRANCH  41  42
ENDBRANCH  11  41
ENDBRANCH   8  11
ENDBRANCH   6   7
BRANCH   6  45
ATOM     45  CB  ASN A   8      25.297  21.592  19.250  0.00  0.00    +0.114 C 
BRANCH  45  46
ATOM     46  CG  ASN A   8      26.474  20.777  19.816  0.00  0.00    +0.222 C 
ATOM     47  ND2 ASN A   8      26.288  20.118  20.955  0.00  0.00    -0.329 N 
ATOM     48 HD21 ASN A   8      25.370  20.170  21.442  0.00  0.00    +0.145 HD
ATOM     49 HD22 ASN A   8      27.060  19.551  21.360  0.00  0.00    +0.145 HD
ATOM     50  OD1 ASN A   8      27.551  20.746  19.199  0.00  0.00    -0.275 OA
ENDBRANCH  45  46
ENDBRANCH   6  45
ENDBRANCH   4   6
ENDBRANCH   1   2
BRANCH   1  52
ATOM     51  C   THR A   6      25.259  20.328  24.030  0.00  0.00    +0.243 C 
ATOM     52  N   GLY A   7      25.139  21.645  24.173  0.00  0.00    -0.295 N 
ATOM     53  H   GLY A   7      25.962  22.196  24.492  0.00  0.00    +0.150 HD
ATOM     54  O   THR A   6      24.308  19.593  23.778  0.00  0.00    -0.273 OA
BRANCH  51  55
ATOM     55  CA  THR A   6      26.663  19.756  24.178  0.00  0.00    +0.176 C 
BRANCH  55  57
ATOM     56  C   GLY A   5      28.699  20.471  23.017  0.00  0.00    +0.243 C 
ATOM     57  N   THR A   6      27.673  20.754  23.815  0.00  0.00    -0.295 N 
ATOM     58  H   THR A   6      27.584  21.718  24.195  0.00  0.00    +0.150 HD
ATOM     59  O   GLY A   5      28.965  19.327  22.647  0.00  0.00    -0.273 OA
BRANCH  56  60
ATOM     60  CA  GLY A   5      29.582  21.633  22.593  0.00  0.00    +0.176 C 
BRANCH  60  62
ATOM     61  C   SER A   4      31.375  20.533  21.345  0.00  0.00    +0.243 C 
ATOM     62  N   GLY A   5      30.937  21.116  22.461  0.00  0.00    -0.295 N 
ATOM     63  H   GLY A   5      31.587  21.205  23.268  0.00  0.00    +0.150 HD
ATOM     64  O   SER A   4      30.818  20.639  20.245  0.00  0.00    -0.273 OA
BRANCH  61  65
ATOM     65  CA  SER A   4      32.658  19.746  21.479  0.00  0.00    +0.178 C 
BRANCH  65  67
ATOM     66  C   ALA A   3      34.950  20.527  21.420  0.00  0.00    +0.241 C 
ATOM     67  N   SER A   4      33.733  20.603  21.949  0.00  0.00    -0.295 N 
ATOM     68  H   SER A   4      33.547  21.286  22.711  0.00  0.00    +0.150 HD
ATOM     69  O   ALA A   3      35.251  19.707  20.545  0.00  0.00    -0.273 OA
BRANCH  66  70
ATOM     70  CA  ALA A   3      35.985  21.531  21.942  0.00  0.00    +0.149 C 
ATOM     71  CB  ALA A   3      36.444  21.158  23.347  0.00  0.00    +0.031 C 
BRANCH  70  73
ATOM     72  C   GLU A   2      34.935  23.413  20.790  0.00  0.00    +0.241 C 
ATOM     73  N   ALA A   3      35.495  22.914  21.893  0.00  0.00    -0.297 N 
ATOM     74  H   ALA A   3      35.586  23.517  22.735  0.00  0.00    +0.150 HD
ATOM     75  O   GLU A   2      34.754  22.741  19.780  0.00  0.00    -0.273 OA
BRANCH  72  76
ATOM     76  CA  GLU A   2      34.544  24.887  20.808  0.00  0.00    +0.149 C 
BRANCH  76  79
ATOM     77  C   THR A   1      36.619  26.140  20.470  0.00  0.00    +0.241 C 
ATOM     78  O   THR A   1      36.913  26.048  21.667  0.00  0.00    -0.274 OA
ATOM     79  N   GLU A   2      35.493  25.629  19.965  0.00  0.00    -0.297 N 
ATOM     80  H   GLU A   2      35.283  25.759  18.955  0.00  0.00    +0.150 HD
BRANCH  77  81
ATOM     81  CA  THR A   1      37.566  26.870  19.502  0.00  0.00    +0.172 C 
BRANCH  81  82
ATOM     82  N   THR A   1      37.624  26.311  18.148  0.00  0.00    -0.236 NA
ATOM     83  H   THR A   1      36.808  26.422  17.513  0.00  0.00    +0.142 HD
ENDBRANCH  81  82
BRANCH  81  84
ATOM     84  CB  THR A   1      37.223  28.376  19.472  0.00  0.00    +0.135 C 
ATOM     85  CG2 THR A   1      38.241  29.150  18.621  0.00  0.00    +0.034 C 
BRANCH  84  86
ATOM     86  OG1 THR A   1      35.916  28.557  18.923  0.00  0.00    -0.383 OA
ATOM     87  HG1 THR A   1      35.893  28.195  18.002  0.00  0.00    +0.210 HD
ENDBRANCH  84  86
ENDBRANCH  81  84
ENDBRANCH  77  81
ENDBRANCH  76  79
BRANCH  76  88
ATOM     88  CB  GLU A   2      33.101  25.092  20.308  0.00  0.00    +0.041 C 
BRANCH  88  89
ATOM     89  CG  GLU A   2      31.991  24.598  21.250  0.00  0.00    +0.116 C 
BRANCH  89  90
ATOM     90  CD  GLU A   2      31.830  25.477  22.474  0.00  0.00    +0.365 C 
ATOM     91  OE2 GLU A   2      32.435  25.150  23.513  0.00  0.00    -0.246 OA
ATOM     92  OE1 GLU A   2      31.121  26.507  22.397  0.00  0.00    -0.246 OA
ENDBRANCH  89  90
ENDBRANCH  88  89
ENDBRANCH  76  88
ENDBRANCH  72  76
ENDBRANCH  70  73
ENDBRANCH  66  70
ENDBRANCH  65  67
BRANCH  65  93
ATOM     93  CB  SER A   4      32.457  18.548  22.416  0.00  0.00    +0.166 C 
BRANCH  93  94
ATOM     94  OG  SER A   4      31.207  17.915  22.174  0.00  0.00    -0.380 OA
ATOM     95  H   SER A   4      30.475  18.564  22.326  0.00  0.00    +0.211 HD
ENDBRANCH  93  94
ENDBRANCH  65  93
ENDBRANCH  61  65
ENDBRANCH  60  62
ENDBRANCH  56  60
ENDBRANCH  55  57
BRANCH  55  96
ATOM     96  CB  THR A   6      26.843  19.209  25.608  0.00  0.00    +0.137 C 
ATOM     97  CG2 THR A   6      28.091  18.352  25.714  0.00  0.00    +0.034 C 
BRANCH  96  98
ATOM     98  OG1 THR A   6      26.921  20.299  26.527  0.00  0.00    -0.382 OA
ATOM     99  HG1 THR A   6      27.037  19.947  27.445  0.00  0.00    +0.210 HD
ENDBRANCH  96  98
ENDBRANCH  55  96
ENDBRANCH  51  55
ENDBRANCH   1  52
TORSDOF 44
REMARK  Name = ../refined-set-2016/3g2n/3g2n_pocket.pdb
REMARK  248 active torsions:
REMARK  status: ('A' for Active; 'I' for Inactive)
REMARK    1  A    between atoms: _1  and  _3
REMARK    2  A    between atoms: _3  and  _4
REMARK    3  A    between atoms: _3  and  _6
REMARK    4  A    between atoms: _6  and  _7
REMARK    5  A    between atoms: _12  and  _13
REMARK    6  A    between atoms: _15  and  _17
REMARK    7  A    between atoms: _17  and  _18
REMARK    8  A    between atoms: _17  and  _20
REMARK    9  A    between atoms: _20  and  _21
REMARK   10  A    between atoms: _21  and  _22
REMARK   11  A    between atoms: _25  and  _27
REMARK   12  A    between atoms: _27  and  _28
REMARK   13  A    between atoms: _27  and  _30
REMARK   14  A    between atoms: _30  and  _31
REMARK   15  A    between atoms: _36  and  _38
REMARK   16  A    between atoms: _38  and  _39
REMARK   17  A    between atoms: _41  and  _43
REMARK   18  A    between atoms: _43  and  _44
REMARK   19  A    between atoms: _46  and  _48
REMARK   20  A    between atoms: _48  and  _49
REMARK   21  A    between atoms: _48  and  _51
REMARK   22  A    between atoms: _51  and  _52
REMARK   23  A    between atoms: _55  and  _57
REMARK   24  A    between atoms: _57  and  _58
REMARK   25  A    between atoms: _60  and  _62
REMARK   26  A    between atoms: _62  and  _63
REMARK   27  A    between atoms: _62  and  _65
REMARK   28  A    between atoms: _65  and  _66
REMARK   29  A    between atoms: _66  and  _67
REMARK   30  A    between atoms: _67  and  _68
REMARK   31  A    between atoms: _77  and  _79
REMARK   32  A    between atoms: _79  and  _80
REMARK   33  A    between atoms: _79  and  _82
REMARK   34  A    between atoms: _82  and  _83
REMARK   35  A    between atoms: _86  and  _88
REMARK   36  A    between atoms: _88  and  _89
REMARK   37  A    between atoms: _92  and  _94
REMARK   38  A    between atoms: _94  and  _95
REMARK   39  A    between atoms: _94  and  _97
REMARK   40  A    between atoms: _97  and  _98
REMARK   41  A    between atoms: _104  and  _106
REMARK   42  A    between atoms: _106  and  _107
REMARK   43  A    between atoms: _106  and  _109
REMARK   44  A    between atoms: _109  and  _110
REMARK   45  A    between atoms: _115  and  _117
REMARK   46  A    between atoms: _117  and  _118
REMARK   47  A    between atoms: _117  and  _120
REMARK   48  A    between atoms: _120  and  _121
REMARK   49  A    between atoms: _124  and  _126
REMARK   50  A    between atoms: _126  and  _127
REMARK   51  A    between atoms: _126  and  _129
REMARK   52  A    between atoms: _129  and  _130
REMARK   53  A    between atoms: _135  and  _137
REMARK   54  A    between atoms: _137  and  _138
REMARK   55  A    between atoms: _137  and  _140
REMARK   56  A    between atoms: _140  and  _141
REMARK   57  A    between atoms: _147  and  _149
REMARK   58  A    between atoms: _149  and  _150
REMARK   59  A    between atoms: _149  and  _152
REMARK   60  A    between atoms: _152  and  _153
REMARK   61  A    between atoms: _159  and  _161
REMARK   62  A    between atoms: _161  and  _162
REMARK   63  A    between atoms: _161  and  _164
REMARK   64  A    between atoms: _164  and  _165
REMARK   65  A    between atoms: _165  and  _166
REMARK   66  A    between atoms: _166  and  _167
REMARK   67  A    between atoms: _176  and  _178
REMARK   68  A    between atoms: _178  and  _179
REMARK   69  A    between atoms: _178  and  _181
REMARK   70  A    between atoms: _181  and  _182
REMARK   71  A    between atoms: _187  and  _189
REMARK   72  A    between atoms: _189  and  _190
REMARK   73  A    between atoms: _189  and  _192
REMARK   74  A    between atoms: _192  and  _193
REMARK   75  A    between atoms: _196  and  _198
REMARK   76  A    between atoms: _198  and  _199
REMARK   77  A    between atoms: _198  and  _201
REMARK   78  A    between atoms: _201  and  _202
REMARK   79  A    between atoms: _205  and  _207
REMARK   80  A    between atoms: _207  and  _208
REMARK   81  A    between atoms: _207  and  _210
REMARK   82  A    between atoms: _210  and  _211
REMARK   83  A    between atoms: _216  and  _218
REMARK   84  A    between atoms: _218  and  _219
REMARK   85  A    between atoms: _218  and  _221
REMARK   86  A    between atoms: _221  and  _222
REMARK   87  A    between atoms: _227  and  _228
REMARK   88  A    between atoms: _230  and  _232
REMARK   89  A    between atoms: _232  and  _233
REMARK   90  A    between atoms: _232  and  _235
REMARK   91  A    between atoms: _235  and  _236
REMARK   92  A    between atoms: _239  and  _241
REMARK   93  A    between atoms: _241  and  _242
REMARK   94  A    between atoms: _241  and  _244
REMARK   95  A    between atoms: _244  and  _245
REMARK   96  A    between atoms: _250  and  _252
REMARK   97  A    between atoms: _252  and  _253
REMARK   98  A    between atoms: _252  and  _255
REMARK   99  A    between atoms: _255  and  _256
REMARK  100  A    between atoms: _261  and  _263
REMARK  101  A    between atoms: _263  and  _264
REMARK  102  A    between atoms: _263  and  _266
REMARK  103  A    between atoms: _266  and  _267
REMARK  104  A    between atoms: _270  and  _272
REMARK  105  A    between atoms: _272  and  _273
REMARK  106  A    between atoms: _272  and  _275
REMARK  107  A    between atoms: _278  and  _280
REMARK  108  A    between atoms: _280  and  _281
REMARK  109  A    between atoms: _280  and  _283
REMARK  110  A    between atoms: _283  and  _284
REMARK  111  A    between atoms: _287  and  _289
REMARK  112  A    between atoms: _289  and  _290
REMARK  113  A    between atoms: _289  and  _292
REMARK  114  A    between atoms: _292  and  _293
REMARK  115  A    between atoms: _293  and  _294
REMARK  116  A    between atoms: _297  and  _299
REMARK  117  A    between atoms: _299  and  _300
REMARK  118  A    between atoms: _303  and  _305
REMARK  119  A    between atoms: _305  and  _306
REMARK  120  A    between atoms: _305  and  _308
REMARK  121  A    between atoms: _308  and  _309
REMARK  122  A    between atoms: _312  and  _314
REMARK  123  A    between atoms: _314  and  _315
REMARK  124  A    between atoms: _314  and  _317
REMARK  125  A    between atoms: _317  and  _318
REMARK  126  A    between atoms: _318  and  _319
REMARK  127  A    between atoms: _322  and  _324
REMARK  128  A    between atoms: _324  and  _325
REMARK  129  A    between atoms: _324  and  _327
REMARK  130  A    between atoms: _327  and  _328
REMARK  131  A    between atoms: _333  and  _335
REMARK  132  A    between atoms: _335  and  _336
REMARK  133  A    between atoms: _338  and  _340
REMARK  134  A    between atoms: _340  and  _341
REMARK  135  A    between atoms: _340  and  _343
REMARK  136  A    between atoms: _346  and  _348
REMARK  137  A    between atoms: _348  and  _349
REMARK  138  A    between atoms: _352  and  _354
REMARK  139  A    between atoms: _354  and  _355
REMARK  140  A    between atoms: _354  and  _357
REMARK  141  A    between atoms: _357  and  _358
REMARK  142  A    between atoms: _363  and  _365
REMARK  143  A    between atoms: _365  and  _366
REMARK  144  A    between atoms: _365  and  _368
REMARK  145  A    between atoms: _368  and  _369
REMARK  146  A    between atoms: _369  and  _370
REMARK  147  A    between atoms: _370  and  _371
REMARK  148  A    between atoms: _371  and  _372
REMARK  149  A    between atoms: _376  and  _378
REMARK  150  A    between atoms: _378  and  _379
REMARK  151  A    between atoms: _378  and  _381
REMARK  152  A    between atoms: _381  and  _382
REMARK  153  A    between atoms: _385  and  _387
REMARK  154  A    between atoms: _387  and  _388
REMARK  155  A    between atoms: _387  and  _390
REMARK  156  A    between atoms: _390  and  _391
REMARK  157  A    between atoms: _396  and  _398
REMARK  158  A    between atoms: _398  and  _399
REMARK  159  A    between atoms: _401  and  _403
REMARK  160  A    between atoms: _403  and  _404
REMARK  161  A    between atoms: _403  and  _406
REMARK  162  A    between atoms: _406  and  _407
REMARK  163  A    between atoms: _407  and  _408
REMARK  164  A    between atoms: _408  and  _409
REMARK  165  A    between atoms: _409  and  _410
REMARK  166  A    between atoms: _414  and  _416
REMARK  167  A    between atoms: _416  and  _417
REMARK  168  A    between atoms: _416  and  _419
REMARK  169  A    between atoms: _419  and  _420
REMARK  170  A    between atoms: _420  and  _421
REMARK  171  A    between atoms: _421  and  _422
REMARK  172  A    between atoms: _431  and  _433
REMARK  173  A    between atoms: _433  and  _434
REMARK  174  A    between atoms: _433  and  _436
REMARK  175  A    between atoms: _436  and  _437
REMARK  176  A    between atoms: _442  and  _444
REMARK  177  A    between atoms: _444  and  _445
REMARK  178  A    between atoms: _444  and  _447
REMARK  179  A    between atoms: _447  and  _448
REMARK  180  A    between atoms: _453  and  _454
REMARK  181  A    between atoms: _456  and  _458
REMARK  182  A    between atoms: _458  and  _459
REMARK  183  A    between atoms: _458  and  _461
REMARK  184  A    between atoms: _461  and  _462
REMARK  185  A    between atoms: _462  and  _463
REMARK  186  A    between atoms: _463  and  _464
REMARK  187  A    between atoms: _464  and  _465
REMARK  188  A    between atoms: _469  and  _471
REMARK  189  A    between atoms: _471  and  _472
REMARK  190  A    between atoms: _471  and  _474
REMARK  191  A    between atoms: _474  and  _475
REMARK  192  A    between atoms: _477  and  _479
REMARK  193  A    between atoms: _479  and  _480
REMARK  194  A    between atoms: _479  and  _482
REMARK  195  A    between atoms: _482  and  _483
REMARK  196  A    between atoms: _486  and  _488
REMARK  197  A    between atoms: _488  and  _489
REMARK  198  A    between atoms: _488  and  _491
REMARK  199  A    between atoms: _491  and  _492
REMARK  200  A    between atoms: _492  and  _493
REMARK  201  A    between atoms: _496  and  _498
REMARK  202  A    between atoms: _498  and  _499
REMARK  203  A    between atoms: _502  and  _504
REMARK  204  A    between atoms: _504  and  _505
REMARK  205  A    between atoms: _504  and  _507
REMARK  206  A    between atoms: _507  and  _508
REMARK  207  A    between atoms: _510  and  _512
REMARK  208  A    between atoms: _512  and  _513
REMARK  209  A    between atoms: _515  and  _517
REMARK  210  A    between atoms: _517  and  _518
REMARK  211  A    between atoms: _517  and  _520
REMARK  212  A    between atoms: _520  and  _521
REMARK  213  A    between atoms: _524  and  _526
REMARK  214  A    between atoms: _526  and  _527
REMARK  215  A    between atoms: _529  and  _531
REMARK  216  A    between atoms: _531  and  _532
REMARK  217  A    between atoms: _531  and  _534
REMARK  218  A    between atoms: _534  and  _535
REMARK  219  A    between atoms: _540  and  _542
REMARK  220  A    between atoms: _542  and  _543
REMARK  221  A    between atoms: _542  and  _545
REMARK  222  A    between atoms: _545  and  _546
REMARK  223  A    between atoms: _546  and  _547
REMARK  224  A    between atoms: _554  and  _555
REMARK  225  A    between atoms: _555  and  _571
REMARK  226  A    between atoms: _556  and  _558
REMARK  227  A    between atoms: _558  and  _559
REMARK  228  A    between atoms: _559  and  _560
REMARK  229  A    between atoms: _564  and  _566
REMARK  230  A    between atoms: _566  and  _567
REMARK  231  A    between atoms: _566  and  _574
REMARK  232  A    between atoms: _567  and  _568
REMARK  233  A    between atoms: _568  and  _569
REMARK  234  A    between atoms: _569  and  _570
REMARK  235  A    between atoms: _570  and  _571
REMARK  236  A    between atoms: _576  and  _578
REMARK  237  A    between atoms: _578  and  _579
REMARK  238  A    between atoms: _578  and  _581
REMARK  239  A    between atoms: _581  and  _582
REMARK  240  A    between atoms: _585  and  _587
REMARK  241  A    between atoms: _587  and  _588
REMARK  242  A    between atoms: _590  and  _592
REMARK  243  A    between atoms: _592  and  _593
REMARK  244  A    between atoms: _596  and  _598
REMARK  245  A    between atoms: _598  and  _599
REMARK  246  A    between atoms: _598  and  _601
REMARK  247  A    between atoms: _601  and  _602
REMARK  248  A    between atoms: _607  and  _608
REMARK                            x       y       z     vdW  Elec       q    Type
REMARK                         _______ _______ _______ _____ _____    ______ ____
ROOT
ATOM      1  C   ASP A   1      32.975  22.123  15.888  0.00  0.00    +0.239 C 
ATOM      2  N   GLY A   2      33.874  21.580  16.704  0.00  0.00    -0.296 N 
ATOM      3  H   GLY A   2      34.877  21.835  16.603  0.00  0.00    +0.150 HD
ATOM      4  O   ASP A   1      31.778  21.830  15.919  0.00  0.00    -0.274 OA
ENDROOT
BRANCH   1   5
ATOM      5  CA  ASP A   1      33.493  23.147  14.878  0.00  0.00    +0.156 C 
BRANCH   5   6
ATOM      6  N   ASP A   1      32.708  23.086  13.655  0.00  0.00    -0.238 NA
ATOM      7  H   ASP A   1      31.672  23.037  13.728  0.00  0.00    +0.142 HD
ENDBRANCH   5   6
BRANCH   5   8
ATOM      8  CB  ASP A   1      33.408  24.553  15.476  0.00  0.00    +0.140 C 
BRANCH   8   9
ATOM      9  CG  ASP A   1      34.487  24.813  16.517  0.00  0.00    +0.367 C 
ATOM     10  OD2 ASP A   1      34.308  25.755  17.308  0.00  0.00    -0.246 OA
ATOM     11  OD1 ASP A   1      35.506  24.078  16.542  0.00  0.00    -0.246 OA
ENDBRANCH   8   9
ENDBRANCH   5   8
ENDBRANCH   1   5
BRANCH   2  12
ATOM     12  CA  GLY A   2      33.473  20.630  17.741  0.00  0.00    +0.176 C 
BRANCH  12  13
ATOM     13  C   GLY A   2      32.596  19.512  17.203  0.00  0.00    +0.243 C 
ATOM     14  N   ALA A   3      31.507  19.235  17.917  0.00  0.00    -0.298 N 
ATOM     15  H   ALA A   3      31.270  19.834  18.733  0.00  0.00    +0.150 HD
ATOM     16  O   GLY A   2      32.889  18.924  16.153  0.00  0.00    -0.273 OA
BRANCH  14  17
ATOM     17  CA  ALA A   3      30.638  18.111  17.582  0.00  0.00    +0.137 C 
ATOM     18  CB  ALA A   3      29.873  17.634  18.812  0.00  0.00    +0.030 C 
BRANCH  17  19
ATOM     19  C   ALA A   3      29.677  18.415  16.427  0.00  0.00    +0.227 C 
ATOM     20  O   ALA A   3      29.061  17.486  15.890  0.00  0.00    -0.286 OA
ENDBRANCH  17  19
ENDBRANCH  14  17
ENDBRANCH  12  13
ENDBRANCH   2  12
TORSDOF 8
REMARK  Name = ../refined-set-2016/3g2n/3g2n_pocket.pdb
REMARK  248 active torsions:
REMARK  status: ('A' for Active; 'I' for Inactive)
REMARK    1  A    between atoms: _1  and  _3
REMARK    2  A    between atoms: _3  and  _4
REMARK    3  A    between atoms: _3  and  _6
REMARK    4  A    between atoms: _6  and  _7
REMARK    5  A    between atoms: _12  and  _13
REMARK    6  A    between atoms: _15  and  _17
REMARK    7  A    between atoms: _17  and  _18
REMARK    8  A    between atoms: _17  and  _20
REMARK    9  A    between atoms: _20  and  _21
REMARK   10  A    between atoms: _21  and  _22
REMARK   11  A    between atoms: _25  and  _27
REMARK   12  A    between atoms: _27  and  _28
REMARK   13  A    between atoms: _27  and  _30
REMARK   14  A    between atoms: _30  and  _31
REMARK   15  A    between atoms: _36  and  _38
REMARK   16  A    between atoms: _38  and  _39
REMARK   17  A    between atoms: _41  and  _43
REMARK   18  A    between atoms: _43  and  _44
REMARK   19  A    between atoms: _46  and  _48
REMARK   20  A    between atoms: _48  and  _49
REMARK   21  A    between atoms: _48  and  _51
REMARK   22  A    between atoms: _51  and  _52
REMARK   23  A    between atoms: _55  and  _57
REMARK   24  A    between atoms: _57  and  _58
REMARK   25  A    between atoms: _60  and  _62
REMARK   26  A    between atoms: _62  and  _63
REMARK   27  A    between atoms: _62  and  _65
REMARK   28  A    between atoms: _65  and  _66
REMARK   29  A    between atoms: _66  and  _67
REMARK   30  A    between atoms: _67  and  _68
REMARK   31  A    between atoms: _77  and  _79
REMARK   32  A    between atoms: _79  and  _80
REMARK   33  A    between atoms: _79  and  _82
REMARK   34  A    between atoms: _82  and  _83
REMARK   35  A    between atoms: _86  and  _88
REMARK   36  A    between atoms: _88  and  _89
REMARK   37  A    between atoms: _92  and  _94
REMARK   38  A    between atoms: _94  and  _95
REMARK   39  A    between atoms: _94  and  _97
REMARK   40  A    between atoms: _97  and  _98
REMARK   41  A    between atoms: _104  and  _106
REMARK   42  A    between atoms: _106  and  _107
REMARK   43  A    between atoms: _106  and  _109
REMARK   44  A    between atoms: _109  and  _110
REMARK   45  A    between atoms: _115  and  _117
REMARK   46  A    between atoms: _117  and  _118
REMARK   47  A    between atoms: _117  and  _120
REMARK   48  A    between atoms: _120  and  _121
REMARK   49  A    between atoms: _124  and  _126
REMARK   50  A    between atoms: _126  and  _127
REMARK   51  A    between atoms: _126  and  _129
REMARK   52  A    between atoms: _129  and  _130
REMARK   53  A    between atoms: _135  and  _137
REMARK   54  A    between atoms: _137  and  _138
REMARK   55  A    between atoms: _137  and  _140
REMARK   56  A    between atoms: _140  and  _141
REMARK   57  A    between atoms: _147  and  _149
REMARK   58  A    between atoms: _149  and  _150
REMARK   59  A    between atoms: _149  and  _152
REMARK   60  A    between atoms: _152  and  _153
REMARK   61  A    between atoms: _159  and  _161
REMARK   62  A    between atoms: _161  and  _162
REMARK   63  A    between atoms: _161  and  _164
REMARK   64  A    between atoms: _164  and  _165
REMARK   65  A    between atoms: _165  and  _166
REMARK   66  A    between atoms: _166  and  _167
REMARK   67  A    between atoms: _176  and  _178
REMARK   68  A    between atoms: _178  and  _179
REMARK   69  A    between atoms: _178  and  _181
REMARK   70  A    between atoms: _181  and  _182
REMARK   71  A    between atoms: _187  and  _189
REMARK   72  A    between atoms: _189  and  _190
REMARK   73  A    between atoms: _189  and  _192
REMARK   74  A    between atoms: _192  and  _193
REMARK   75  A    between atoms: _196  and  _198
REMARK   76  A    between atoms: _198  and  _199
REMARK   77  A    between atoms: _198  and  _201
REMARK   78  A    between atoms: _201  and  _202
REMARK   79  A    between atoms: _205  and  _207
REMARK   80  A    between atoms: _207  and  _208
REMARK   81  A    between atoms: _207  and  _210
REMARK   82  A    between atoms: _210  and  _211
REMARK   83  A    between atoms: _216  and  _218
REMARK   84  A    between atoms: _218  and  _219
REMARK   85  A    between atoms: _218  and  _221
REMARK   86  A    between atoms: _221  and  _222
REMARK   87  A    between atoms: _227  and  _228
REMARK   88  A    between atoms: _230  and  _232
REMARK   89  A    between atoms: _232  and  _233
REMARK   90  A    between atoms: _232  and  _235
REMARK   91  A    between atoms: _235  and  _236
REMARK   92  A    between atoms: _239  and  _241
REMARK   93  A    between atoms: _241  and  _242
REMARK   94  A    between atoms: _241  and  _244
REMARK   95  A    between atoms: _244  and  _245
REMARK   96  A    between atoms: _250  and  _252
REMARK   97  A    between atoms: _252  and  _253
REMARK   98  A    between atoms: _252  and  _255
REMARK   99  A    between atoms: _255  and  _256
REMARK  100  A    between atoms: _261  and  _263
REMARK  101  A    between atoms: _263  and  _264
REMARK  102  A    between atoms: _263  and  _266
REMARK  103  A    between atoms: _266  and  _267
REMARK  104  A    between atoms: _270  and  _272
REMARK  105  A    between atoms: _272  and  _273
REMARK  106  A    between atoms: _272  and  _275
REMARK  107  A    between atoms: _278  and  _280
REMARK  108  A    between atoms: _280  and  _281
REMARK  109  A    between atoms: _280  and  _283
REMARK  110  A    between atoms: _283  and  _284
REMARK  111  A    between atoms: _287  and  _289
REMARK  112  A    between atoms: _289  and  _290
REMARK  113  A    between atoms: _289  and  _292
REMARK  114  A    between atoms: _292  and  _293
REMARK  115  A    between atoms: _293  and  _294
REMARK  116  A    between atoms: _297  and  _299
REMARK  117  A    between atoms: _299  and  _300
REMARK  118  A    between atoms: _303  and  _305
REMARK  119  A    between atoms: _305  and  _306
REMARK  120  A    between atoms: _305  and  _308
REMARK  121  A    between atoms: _308  and  _309
REMARK  122  A    between atoms: _312  and  _314
REMARK  123  A    between atoms: _314  and  _315
REMARK  124  A    between atoms: _314  and  _317
REMARK  125  A    between atoms: _317  and  _318
REMARK  126  A    between atoms: _318  and  _319
REMARK  127  A    between atoms: _322  and  _324
REMARK  128  A    between atoms: _324  and  _325
REMARK  129  A    between atoms: _324  and  _327
REMARK  130  A    between atoms: _327  and  _328
REMARK  131  A    between atoms: _333  and  _335
REMARK  132  A    between atoms: _335  and  _336
REMARK  133  A    between atoms: _338  and  _340
REMARK  134  A    between atoms: _340  and  _341
REMARK  135  A    between atoms: _340  and  _343
REMARK  136  A    between atoms: _346  and  _348
REMARK  137  A    between atoms: _348  and  _349
REMARK  138  A    between atoms: _352  and  _354
REMARK  139  A    between atoms: _354  and  _355
REMARK  140  A    between atoms: _354  and  _357
REMARK  141  A    between atoms: _357  and  _358
REMARK  142  A    between atoms: _363  and  _365
REMARK  143  A    between atoms: _365  and  _366
REMARK  144  A    between atoms: _365  and  _368
REMARK  145  A    between atoms: _368  and  _369
REMARK  146  A    between atoms: _369  and  _370
REMARK  147  A    between atoms: _370  and  _371
REMARK  148  A    between atoms: _371  and  _372
REMARK  149  A    between atoms: _376  and  _378
REMARK  150  A    between atoms: _378  and  _379
REMARK  151  A    between atoms: _378  and  _381
REMARK  152  A    between atoms: _381  and  _382
REMARK  153  A    between atoms: _385  and  _387
REMARK  154  A    between atoms: _387  and  _388
REMARK  155  A    between atoms: _387  and  _390
REMARK  156  A    between atoms: _390  and  _391
REMARK  157  A    between atoms: _396  and  _398
REMARK  158  A    between atoms: _398  and  _399
REMARK  159  A    between atoms: _401  and  _403
REMARK  160  A    between atoms: _403  and  _404
REMARK  161  A    between atoms: _403  and  _406
REMARK  162  A    between atoms: _406  and  _407
REMARK  163  A    between atoms: _407  and  _408
REMARK  164  A    between atoms: _408  and  _409
REMARK  165  A    between atoms: _409  and  _410
REMARK  166  A    between atoms: _414  and  _416
REMARK  167  A    between atoms: _416  and  _417
REMARK  168  A    between atoms: _416  and  _419
REMARK  169  A    between atoms: _419  and  _420
REMARK  170  A    between atoms: _420  and  _421
REMARK  171  A    between atoms: _421  and  _422
REMARK  172  A    between atoms: _431  and  _433
REMARK  173  A    between atoms: _433  and  _434
REMARK  174  A    between atoms: _433  and  _436
REMARK  175  A    between atoms: _436  and  _437
REMARK  176  A    between atoms: _442  and  _444
REMARK  177  A    between atoms: _444  and  _445
REMARK  178  A    between atoms: _444  and  _447
REMARK  179  A    between atoms: _447  and  _448
REMARK  180  A    between atoms: _453  and  _454
REMARK  181  A    between atoms: _456  and  _458
REMARK  182  A    between atoms: _458  and  _459
REMARK  183  A    between atoms: _458  and  _461
REMARK  184  A    between atoms: _461  and  _462
REMARK  185  A    between atoms: _462  and  _463
REMARK  186  A    between atoms: _463  and  _464
REMARK  187  A    between atoms: _464  and  _465
REMARK  188  A    between atoms: _469  and  _471
REMARK  189  A    between atoms: _471  and  _472
REMARK  190  A    between atoms: _471  and  _474
REMARK  191  A    between atoms: _474  and  _475
REMARK  192  A    between atoms: _477  and  _479
REMARK  193  A    between atoms: _479  and  _480
REMARK  194  A    between atoms: _479  and  _482
REMARK  195  A    between atoms: _482  and  _483
REMARK  196  A    between atoms: _486  and  _488
REMARK  197  A    between atoms: _488  and  _489
REMARK  198  A    between atoms: _488  and  _491
REMARK  199  A    between atoms: _491  and  _492
REMARK  200  A    between atoms: _492  and  _493
REMARK  201  A    between atoms: _496  and  _498
REMARK  202  A    between atoms: _498  and  _499
REMARK  203  A    between atoms: _502  and  _504
REMARK  204  A    between atoms: _504  and  _505
REMARK  205  A    between atoms: _504  and  _507
REMARK  206  A    between atoms: _507  and  _508
REMARK  207  A    between atoms: _510  and  _512
REMARK  208  A    between atoms: _512  and  _513
REMARK  209  A    between atoms: _515  and  _517
REMARK  210  A    between atoms: _517  and  _518
REMARK  211  A    between atoms: _517  and  _520
REMARK  212  A    between atoms: _520  and  _521
REMARK  213  A    between atoms: _524  and  _526
REMARK  214  A    between atoms: _526  and  _527
REMARK  215  A    between atoms: _529  and  _531
REMARK  216  A    between atoms: _531  and  _532
REMARK  217  A    between atoms: _531  and  _534
REMARK  218  A    between atoms: _534  and  _535
REMARK  219  A    between atoms: _540  and  _542
REMARK  220  A    between atoms: _542  and  _543
REMARK  221  A    between atoms: _542  and  _545
REMARK  222  A    between atoms: _545  and  _546
REMARK  223  A    between atoms: _546  and  _547
REMARK  224  A    between atoms: _554  and  _555
REMARK  225  A    between atoms: _555  and  _571
REMARK  226  A    between atoms: _556  and  _558
REMARK  227  A    between atoms: _558  and  _559
REMARK  228  A    between atoms: _559  and  _560
REMARK  229  A    between atoms: _564  and  _566
REMARK  230  A    between atoms: _566  and  _567
REMARK  231  A    between atoms: _566  and  _574
REMARK  232  A    between atoms: _567  and  _568
REMARK  233  A    between atoms: _568  and  _569
REMARK  234  A    between atoms: _569  and  _570
REMARK  235  A    between atoms: _570  and  _571
REMARK  236  A    between atoms: _576  and  _578
REMARK  237  A    between atoms: _578  and  _579
REMARK  238  A    between atoms: _578  and  _581
REMARK  239  A    between atoms: _581  and  _582
REMARK  240  A    between atoms: _585  and  _587
REMARK  241  A    between atoms: _587  and  _588
REMARK  242  A    between atoms: _590  and  _592
REMARK  243  A    between atoms: _592  and  _593
REMARK  244  A    between atoms: _596  and  _598
REMARK  245  A    between atoms: _598  and  _599
REMARK  246  A    between atoms: _598  and  _601
REMARK  247  A    between atoms: _601  and  _602
REMARK  248  A    between atoms: _607  and  _608
REMARK                            x       y       z     vdW  Elec       q    Type
REMARK                         _______ _______ _______ _____ _____    ______ ____
ROOT
ATOM      1  CG  TYR A   1      34.658   7.532  28.822  0.00  0.00    -0.020 A 
ATOM      2  CD2 TYR A   1      35.797   8.150  29.341  0.00  0.00    -0.001 A 
ATOM      3  CE2 TYR A   1      36.053   9.506  29.113  0.00  0.00    +0.036 A 
ATOM      4  CZ  TYR A   1      35.168  10.246  28.366  0.00  0.00    +0.134 A 
ATOM      5  CE1 TYR A   1      34.021   9.660  27.845  0.00  0.00    +0.036 A 
ATOM      6  CD1 TYR A   1      33.771   8.307  28.078  0.00  0.00    -0.001 A 
ENDROOT
BRANCH   4   7
ATOM      7  OH  TYR A   1      35.425  11.582  28.142  0.00  0.00    -0.506 OA
ATOM      8  HH  TYR A   1      35.495  11.745  27.168  0.00  0.00    +0.292 HD
ENDBRANCH   4   7
BRANCH   1   9
ATOM      9  CB  TYR A   1      34.379   6.070  29.097  0.00  0.00    +0.051 C 
BRANCH   9  10
ATOM     10  CA  TYR A   1      34.947   5.064  28.088  0.00  0.00    +0.137 C 
BRANCH  10  11
ATOM     11  N   TYR A   1      34.037   4.913  26.940  0.00  0.00    -0.239 NA
ATOM     12  H   TYR A   1      33.188   5.511  26.887  0.00  0.00    +0.142 HD
ENDBRANCH  10  11
BRANCH  10  13
ATOM     13  C   TYR A   1      35.141   3.729  28.816  0.00  0.00    +0.224 C 
ATOM     14  O   TYR A   1      36.266   3.317  29.106  0.00  0.00    -0.287 OA
ENDBRANCH  10  13
ENDBRANCH   9  10
ENDBRANCH   1   9
TORSDOF 5
REMARK  Name = ../refined-set-2016/3g2n/3g2n_pocket.pdb
REMARK  248 active torsions:
REMARK  status: ('A' for Active; 'I' for Inactive)
REMARK    1  A    between atoms: _1  and  _3
REMARK    2  A    between atoms: _3  and  _4
REMARK    3  A    between atoms: _3  and  _6
REMARK    4  A    between atoms: _6  and  _7
REMARK    5  A    between atoms: _12  and  _13
REMARK    6  A    between atoms: _15  and  _17
REMARK    7  A    between atoms: _17  and  _18
REMARK    8  A    between atoms: _17  and  _20
REMARK    9  A    between atoms: _20  and  _21
REMARK   10  A    between atoms: _21  and  _22
REMARK   11  A    between atoms: _25  and  _27
REMARK   12  A    between atoms: _27  and  _28
REMARK   13  A    between atoms: _27  and  _30
REMARK   14  A    between atoms: _30  and  _31
REMARK   15  A    between atoms: _36  and  _38
REMARK   16  A    between atoms: _38  and  _39
REMARK   17  A    between atoms: _41  and  _43
REMARK   18  A    between atoms: _43  and  _44
REMARK   19  A    between atoms: _46  and  _48
REMARK   20  A    between atoms: _48  and  _49
REMARK   21  A    between atoms: _48  and  _51
REMARK   22  A    between atoms: _51  and  _52
REMARK   23  A    between atoms: _55  and  _57
REMARK   24  A    between atoms: _57  and  _58
REMARK   25  A    between atoms: _60  and  _62
REMARK   26  A    between atoms: _62  and  _63
REMARK   27  A    between atoms: _62  and  _65
REMARK   28  A    between atoms: _65  and  _66
REMARK   29  A    between atoms: _66  and  _67
REMARK   30  A    between atoms: _67  and  _68
REMARK   31  A    between atoms: _77  and  _79
REMARK   32  A    between atoms: _79  and  _80
REMARK   33  A    between atoms: _79  and  _82
REMARK   34  A    between atoms: _82  and  _83
REMARK   35  A    between atoms: _86  and  _88
REMARK   36  A    between atoms: _88  and  _89
REMARK   37  A    between atoms: _92  and  _94
REMARK   38  A    between atoms: _94  and  _95
REMARK   39  A    between atoms: _94  and  _97
REMARK   40  A    between atoms: _97  and  _98
REMARK   41  A    between atoms: _104  and  _106
REMARK   42  A    between atoms: _106  and  _107
REMARK   43  A    between atoms: _106  and  _109
REMARK   44  A    between atoms: _109  and  _110
REMARK   45  A    between atoms: _115  and  _117
REMARK   46  A    between atoms: _117  and  _118
REMARK   47  A    between atoms: _117  and  _120
REMARK   48  A    between atoms: _120  and  _121
REMARK   49  A    between atoms: _124  and  _126
REMARK   50  A    between atoms: _126  and  _127
REMARK   51  A    between atoms: _126  and  _129
REMARK   52  A    between atoms: _129  and  _130
REMARK   53  A    between atoms: _135  and  _137
REMARK   54  A    between atoms: _137  and  _138
REMARK   55  A    between atoms: _137  and  _140
REMARK   56  A    between atoms: _140  and  _141
REMARK   57  A    between atoms: _147  and  _149
REMARK   58  A    between atoms: _149  and  _150
REMARK   59  A    between atoms: _149  and  _152
REMARK   60  A    between atoms: _152  and  _153
REMARK   61  A    between atoms: _159  and  _161
REMARK   62  A    between atoms: _161  and  _162
REMARK   63  A    between atoms: _161  and  _164
REMARK   64  A    between atoms: _164  and  _165
REMARK   65  A    between atoms: _165  and  _166
REMARK   66  A    between atoms: _166  and  _167
REMARK   67  A    between atoms: _176  and  _178
REMARK   68  A    between atoms: _178  and  _179
REMARK   69  A    between atoms: _178  and  _181
REMARK   70  A    between atoms: _181  and  _182
REMARK   71  A    between atoms: _187  and  _189
REMARK   72  A    between atoms: _189  and  _190
REMARK   73  A    between atoms: _189  and  _192
REMARK   74  A    between atoms: _192  and  _193
REMARK   75  A    between atoms: _196  and  _198
REMARK   76  A    between atoms: _198  and  _199
REMARK   77  A    between atoms: _198  and  _201
REMARK   78  A    between atoms: _201  and  _202
REMARK   79  A    between atoms: _205  and  _207
REMARK   80  A    between atoms: _207  and  _208
REMARK   81  A    between atoms: _207  and  _210
REMARK   82  A    between atoms: _210  and  _211
REMARK   83  A    between atoms: _216  and  _218
REMARK   84  A    between atoms: _218  and  _219
REMARK   85  A    between atoms: _218  and  _221
REMARK   86  A    between atoms: _221  and  _222
REMARK   87  A    between atoms: _227  and  _228
REMARK   88  A    between atoms: _230  and  _232
REMARK   89  A    between atoms: _232  and  _233
REMARK   90  A    between atoms: _232  and  _235
REMARK   91  A    between atoms: _235  and  _236
REMARK   92  A    between atoms: _239  and  _241
REMARK   93  A    between atoms: _241  and  _242
REMARK   94  A    between atoms: _241  and  _244
REMARK   95  A    between atoms: _244  and  _245
REMARK   96  A    between atoms: _250  and  _252
REMARK   97  A    between atoms: _252  and  _253
REMARK   98  A    between atoms: _252  and  _255
REMARK   99  A    between atoms: _255  and  _256
REMARK  100  A    between atoms: _261  and  _263
REMARK  101  A    between atoms: _263  and  _264
REMARK  102  A    between atoms: _263  and  _266
REMARK  103  A    between atoms: _266  and  _267
REMARK  104  A    between atoms: _270  and  _272
REMARK  105  A    between atoms: _272  and  _273
REMARK  106  A    between atoms: _272  and  _275
REMARK  107  A    between atoms: _278  and  _280
REMARK  108  A    between atoms: _280  and  _281
REMARK  109  A    between atoms: _280  and  _283
REMARK  110  A    between atoms: _283  and  _284
REMARK  111  A    between atoms: _287  and  _289
REMARK  112  A    between atoms: _289  and  _290
REMARK  113  A    between atoms: _289  and  _292
REMARK  114  A    between atoms: _292  and  _293
REMARK  115  A    between atoms: _293  and  _294
REMARK  116  A    between atoms: _297  and  _299
REMARK  117  A    between atoms: _299  and  _300
REMARK  118  A    between atoms: _303  and  _305
REMARK  119  A    between atoms: _305  and  _306
REMARK  120  A    between atoms: _305  and  _308
REMARK  121  A    between atoms: _308  and  _309
REMARK  122  A    between atoms: _312  and  _314
REMARK  123  A    between atoms: _314  and  _315
REMARK  124  A    between atoms: _314  and  _317
REMARK  125  A    between atoms: _317  and  _318
REMARK  126  A    between atoms: _318  and  _319
REMARK  127  A    between atoms: _322  and  _324
REMARK  128  A    between atoms: _324  and  _325
REMARK  129  A    between atoms: _324  and  _327
REMARK  130  A    between atoms: _327  and  _328
REMARK  131  A    between atoms: _333  and  _335
REMARK  132  A    between atoms: _335  and  _336
REMARK  133  A    between atoms: _338  and  _340
REMARK  134  A    between atoms: _340  and  _341
REMARK  135  A    between atoms: _340  and  _343
REMARK  136  A    between atoms: _346  and  _348
REMARK  137  A    between atoms: _348  and  _349
REMARK  138  A    between atoms: _352  and  _354
REMARK  139  A    between atoms: _354  and  _355
REMARK  140  A    between atoms: _354  and  _357
REMARK  141  A    between atoms: _357  and  _358
REMARK  142  A    between atoms: _363  and  _365
REMARK  143  A    between atoms: _365  and  _366
REMARK  144  A    between atoms: _365  and  _368
REMARK  145  A    between atoms: _368  and  _369
REMARK  146  A    between atoms: _369  and  _370
REMARK  147  A    between atoms: _370  and  _371
REMARK  148  A    between atoms: _371  and  _372
REMARK  149  A    between atoms: _376  and  _378
REMARK  150  A    between atoms: _378  and  _379
REMARK  151  A    between atoms: _378  and  _381
REMARK  152  A    between atoms: _381  and  _382
REMARK  153  A    between atoms: _385  and  _387
REMARK  154  A    between atoms: _387  and  _388
REMARK  155  A    between atoms: _387  and  _390
REMARK  156  A    between atoms: _390  and  _391
REMARK  157  A    between atoms: _396  and  _398
REMARK  158  A    between atoms: _398  and  _399
REMARK  159  A    between atoms: _401  and  _403
REMARK  160  A    between atoms: _403  and  _404
REMARK  161  A    between atoms: _403  and  _406
REMARK  162  A    between atoms: _406  and  _407
REMARK  163  A    between atoms: _407  and  _408
REMARK  164  A    between atoms: _408  and  _409
REMARK  165  A    between atoms: _409  and  _410
REMARK  166  A    between atoms: _414  and  _416
REMARK  167  A    between atoms: _416  and  _417
REMARK  168  A    between atoms: _416  and  _419
REMARK  169  A    between atoms: _419  and  _420
REMARK  170  A    between atoms: _420  and  _421
REMARK  171  A    between atoms: _421  and  _422
REMARK  172  A    between atoms: _431  and  _433
REMARK  173  A    between atoms: _433  and  _434
REMARK  174  A    between atoms: _433  and  _436
REMARK  175  A    between atoms: _436  and  _437
REMARK  176  A    between atoms: _442  and  _444
REMARK  177  A    between atoms: _444  and  _445
REMARK  178  A    between atoms: _444  and  _447
REMARK  179  A    between atoms: _447  and  _448
REMARK  180  A    between atoms: _453  and  _454
REMARK  181  A    between atoms: _456  and  _458
REMARK  182  A    between atoms: _458  and  _459
REMARK  183  A    between atoms: _458  and  _461
REMARK  184  A    between atoms: _461  and  _462
REMARK  185  A    between atoms: _462  and  _463
REMARK  186  A    between atoms: _463  and  _464
REMARK  187  A    between atoms: _464  and  _465
REMARK  188  A    between atoms: _469  and  _471
REMARK  189  A    between atoms: _471  and  _472
REMARK  190  A    between atoms: _471  and  _474
REMARK  191  A    between atoms: _474  and  _475
REMARK  192  A    between atoms: _477  and  _479
REMARK  193  A    between atoms: _479  and  _480
REMARK  194  A    between atoms: _479  and  _482
REMARK  195  A    between atoms: _482  and  _483
REMARK  196  A    between atoms: _486  and  _488
REMARK  197  A    between atoms: _488  and  _489
REMARK  198  A    between atoms: _488  and  _491
REMARK  199  A    between atoms: _491  and  _492
REMARK  200  A    between atoms: _492  and  _493
REMARK  201  A    between atoms: _496  and  _498
REMARK  202  A    between atoms: _498  and  _499
REMARK  203  A    between atoms: _502  and  _504
REMARK  204  A    between atoms: _504  and  _505
REMARK  205  A    between atoms: _504  and  _507
REMARK  206  A    between atoms: _507  and  _508
REMARK  207  A    between atoms: _510  and  _512
REMARK  208  A    between atoms: _512  and  _513
REMARK  209  A    between atoms: _515  and  _517
REMARK  210  A    between atoms: _517  and  _518
REMARK  211  A    between atoms: _517  and  _520
REMARK  212  A    between atoms: _520  and  _521
REMARK  213  A    between atoms: _524  and  _526
REMARK  214  A    between atoms: _526  and  _527
REMARK  215  A    between atoms: _529  and  _531
REMARK  216  A    between atoms: _531  and  _532
REMARK  217  A    between atoms: _531  and  _534
REMARK  218  A    between atoms: _534  and  _535
REMARK  219  A    between atoms: _540  and  _542
REMARK  220  A    between atoms: _542  and  _543
REMARK  221  A    between atoms: _542  and  _545
REMARK  222  A    between atoms: _545  and  _546
REMARK  223  A    between atoms: _546  and  _547
REMARK  224  A    between atoms: _554  and  _555
REMARK  225  A    between atoms: _555  and  _571
REMARK  226  A    between atoms: _556  and  _558
REMARK  227  A    between atoms: _558  and  _559
REMARK  228  A    between atoms: _559  and  _560
REMARK  229  A    between atoms: _564  and  _566
REMARK  230  A    between atoms: _566  and  _567
REMARK  231  A    between atoms: _566  and  _574
REMARK  232  A    between atoms: _567  and  _568
REMARK  233  A    between atoms: _568  and  _569
REMARK  234  A    between atoms: _569  and  _570
REMARK  235  A    between atoms: _570  and  _571
REMARK  236  A    between atoms: _576  and  _578
REMARK  237  A    between atoms: _578  and  _579
REMARK  238  A    between atoms: _578  and  _581
REMARK  239  A    between atoms: _581  and  _582
REMARK  240  A    between atoms: _585  and  _587
REMARK  241  A    between atoms: _587  and  _588
REMARK  242  A    between atoms: _590  and  _592
REMARK  243  A    between atoms: _592  and  _593
REMARK  244  A    between atoms: _596  and  _598
REMARK  245  A    between atoms: _598  and  _599
REMARK  246  A    between atoms: _598  and  _601
REMARK  247  A    between atoms: _601  and  _602
REMARK  248  A    between atoms: _607  and  _608
REMARK                            x       y       z     vdW  Elec       q    Type
REMARK                         _______ _______ _______ _____ _____    ______ ____
ROOT
ATOM      1  O   HOH     1      33.763  12.693  26.252  0.00  0.00    +0.000 OA
ENDROOT
TORSDOF 0
REMARK  Name = ../refined-set-2016/3g2n/3g2n_pocket.pdb
REMARK  248 active torsions:
REMARK  status: ('A' for Active; 'I' for Inactive)
REMARK    1  A    between atoms: _1  and  _3
REMARK    2  A    between atoms: _3  and  _4
REMARK    3  A    between atoms: _3  and  _6
REMARK    4  A    between atoms: _6  and  _7
REMARK    5  A    between atoms: _12  and  _13
REMARK    6  A    between atoms: _15  and  _17
REMARK    7  A    between atoms: _17  and  _18
REMARK    8  A    between atoms: _17  and  _20
REMARK    9  A    between atoms: _20  and  _21
REMARK   10  A    between atoms: _21  and  _22
REMARK   11  A    between atoms: _25  and  _27
REMARK   12  A    between atoms: _27  and  _28
REMARK   13  A    between atoms: _27  and  _30
REMARK   14  A    between atoms: _30  and  _31
REMARK   15  A    between atoms: _36  and  _38
REMARK   16  A    between atoms: _38  and  _39
REMARK   17  A    between atoms: _41  and  _43
REMARK   18  A    between atoms: _43  and  _44
REMARK   19  A    between atoms: _46  and  _48
REMARK   20  A    between atoms: _48  and  _49
REMARK   21  A    between atoms: _48  and  _51
REMARK   22  A    between atoms: _51  and  _52
REMARK   23  A    between atoms: _55  and  _57
REMARK   24  A    between atoms: _57  and  _58
REMARK   25  A    between atoms: _60  and  _62
REMARK   26  A    between atoms: _62  and  _63
REMARK   27  A    between atoms: _62  and  _65
REMARK   28  A    between atoms: _65  and  _66
REMARK   29  A    between atoms: _66  and  _67
REMARK   30  A    between atoms: _67  and  _68
REMARK   31  A    between atoms: _77  and  _79
REMARK   32  A    between atoms: _79  and  _80
REMARK   33  A    between atoms: _79  and  _82
REMARK   34  A    between atoms: _82  and  _83
REMARK   35  A    between atoms: _86  and  _88
REMARK   36  A    between atoms: _88  and  _89
REMARK   37  A    between atoms: _92  and  _94
REMARK   38  A    between atoms: _94  and  _95
REMARK   39  A    between atoms: _94  and  _97
REMARK   40  A    between atoms: _97  and  _98
REMARK   41  A    between atoms: _104  and  _106
REMARK   42  A    between atoms: _106  and  _107
REMARK   43  A    between atoms: _106  and  _109
REMARK   44  A    between atoms: _109  and  _110
REMARK   45  A    between atoms: _115  and  _117
REMARK   46  A    between atoms: _117  and  _118
REMARK   47  A    between atoms: _117  and  _120
REMARK   48  A    between atoms: _120  and  _121
REMARK   49  A    between atoms: _124  and  _126
REMARK   50  A    between atoms: _126  and  _127
REMARK   51  A    between atoms: _126  and  _129
REMARK   52  A    between atoms: _129  and  _130
REMARK   53  A    between atoms: _135  and  _137
REMARK   54  A    between atoms: _137  and  _138
REMARK   55  A    between atoms: _137  and  _140
REMARK   56  A    between atoms: _140  and  _141
REMARK   57  A    between atoms: _147  and  _149
REMARK   58  A    between atoms: _149  and  _150
REMARK   59  A    between atoms: _149  and  _152
REMARK   60  A    between atoms: _152  and  _153
REMARK   61  A    between atoms: _159  and  _161
REMARK   62  A    between atoms: _161  and  _162
REMARK   63  A    between atoms: _161  and  _164
REMARK   64  A    between atoms: _164  and  _165
REMARK   65  A    between atoms: _165  and  _166
REMARK   66  A    between atoms: _166  and  _167
REMARK   67  A    between atoms: _176  and  _178
REMARK   68  A    between atoms: _178  and  _179
REMARK   69  A    between atoms: _178  and  _181
REMARK   70  A    between atoms: _181  and  _182
REMARK   71  A    between atoms: _187  and  _189
REMARK   72  A    between atoms: _189  and  _190
REMARK   73  A    between atoms: _189  and  _192
REMARK   74  A    between atoms: _192  and  _193
REMARK   75  A    between atoms: _196  and  _198
REMARK   76  A    between atoms: _198  and  _199
REMARK   77  A    between atoms: _198  and  _201
REMARK   78  A    between atoms: _201  and  _202
REMARK   79  A    between atoms: _205  and  _207
REMARK   80  A    between atoms: _207  and  _208
REMARK   81  A    between atoms: _207  and  _210
REMARK   82  A    between atoms: _210  and  _211
REMARK   83  A    between atoms: _216  and  _218
REMARK   84  A    between atoms: _218  and  _219
REMARK   85  A    between atoms: _218  and  _221
REMARK   86  A    between atoms: _221  and  _222
REMARK   87  A    between atoms: _227  and  _228
REMARK   88  A    between atoms: _230  and  _232
REMARK   89  A    between atoms: _232  and  _233
REMARK   90  A    between atoms: _232  and  _235
REMARK   91  A    between atoms: _235  and  _236
REMARK   92  A    between atoms: _239  and  _241
REMARK   93  A    between atoms: _241  and  _242
REMARK   94  A    between atoms: _241  and  _244
REMARK   95  A    between atoms: _244  and  _245
REMARK   96  A    between atoms: _250  and  _252
REMARK   97  A    between atoms: _252  and  _253
REMARK   98  A    between atoms: _252  and  _255
REMARK   99  A    between atoms: _255  and  _256
REMARK  100  A    between atoms: _261  and  _263
REMARK  101  A    between atoms: _263  and  _264
REMARK  102  A    between atoms: _263  and  _266
REMARK  103  A    between atoms: _266  and  _267
REMARK  104  A    between atoms: _270  and  _272
REMARK  105  A    between atoms: _272  and  _273
REMARK  106  A    between atoms: _272  and  _275
REMARK  107  A    between atoms: _278  and  _280
REMARK  108  A    between atoms: _280  and  _281
REMARK  109  A    between atoms: _280  and  _283
REMARK  110  A    between atoms: _283  and  _284
REMARK  111  A    between atoms: _287  and  _289
REMARK  112  A    between atoms: _289  and  _290
REMARK  113  A    between atoms: _289  and  _292
REMARK  114  A    between atoms: _292  and  _293
REMARK  115  A    between atoms: _293  and  _294
REMARK  116  A    between atoms: _297  and  _299
REMARK  117  A    between atoms: _299  and  _300
REMARK  118  A    between atoms: _303  and  _305
REMARK  119  A    between atoms: _305  and  _306
REMARK  120  A    between atoms: _305  and  _308
REMARK  121  A    between atoms: _308  and  _309
REMARK  122  A    between atoms: _312  and  _314
REMARK  123  A    between atoms: _314  and  _315
REMARK  124  A    between atoms: _314  and  _317
REMARK  125  A    between atoms: _317  and  _318
REMARK  126  A    between atoms: _318  and  _319
REMARK  127  A    between atoms: _322  and  _324
REMARK  128  A    between atoms: _324  and  _325
REMARK  129  A    between atoms: _324  and  _327
REMARK  130  A    between atoms: _327  and  _328
REMARK  131  A    between atoms: _333  and  _335
REMARK  132  A    between atoms: _335  and  _336
REMARK  133  A    between atoms: _338  and  _340
REMARK  134  A    between atoms: _340  and  _341
REMARK  135  A    between atoms: _340  and  _343
REMARK  136  A    between atoms: _346  and  _348
REMARK  137  A    between atoms: _348  and  _349
REMARK  138  A    between atoms: _352  and  _354
REMARK  139  A    between atoms: _354  and  _355
REMARK  140  A    between atoms: _354  and  _357
REMARK  141  A    between atoms: _357  and  _358
REMARK  142  A    between atoms: _363  and  _365
REMARK  143  A    between atoms: _365  and  _366
REMARK  144  A    between atoms: _365  and  _368
REMARK  145  A    between atoms: _368  and  _369
REMARK  146  A    between atoms: _369  and  _370
REMARK  147  A    between atoms: _370  and  _371
REMARK  148  A    between atoms: _371  and  _372
REMARK  149  A    between atoms: _376  and  _378
REMARK  150  A    between atoms: _378  and  _379
REMARK  151  A    between atoms: _378  and  _381
REMARK  152  A    between atoms: _381  and  _382
REMARK  153  A    between atoms: _385  and  _387
REMARK  154  A    between atoms: _387  and  _388
REMARK  155  A    between atoms: _387  and  _390
REMARK  156  A    between atoms: _390  and  _391
REMARK  157  A    between atoms: _396  and  _398
REMARK  158  A    between atoms: _398  and  _399
REMARK  159  A    between atoms: _401  and  _403
REMARK  160  A    between atoms: _403  and  _404
REMARK  161  A    between atoms: _403  and  _406
REMARK  162  A    between atoms: _406  and  _407
REMARK  163  A    between atoms: _407  and  _408
REMARK  164  A    between atoms: _408  and  _409
REMARK  165  A    between atoms: _409  and  _410
REMARK  166  A    between atoms: _414  and  _416
REMARK  167  A    between atoms: _416  and  _417
REMARK  168  A    between atoms: _416  and  _419
REMARK  169  A    between atoms: _419  and  _420
REMARK  170  A    between atoms: _420  and  _421
REMARK  171  A    between atoms: _421  and  _422
REMARK  172  A    between atoms: _431  and  _433
REMARK  173  A    between atoms: _433  and  _434
REMARK  174  A    between atoms: _433  and  _436
REMARK  175  A    between atoms: _436  and  _437
REMARK  176  A    between atoms: _442  and  _444
REMARK  177  A    between atoms: _444  and  _445
REMARK  178  A    between atoms: _444  and  _447
REMARK  179  A    between atoms: _447  and  _448
REMARK  180  A    between atoms: _453  and  _454
REMARK  181  A    between atoms: _456  and  _458
REMARK  182  A    between atoms: _458  and  _459
REMARK  183  A    between atoms: _458  and  _461
REMARK  184  A    between atoms: _461  and  _462
REMARK  185  A    between atoms: _462  and  _463
REMARK  186  A    between atoms: _463  and  _464
REMARK  187  A    between atoms: _464  and  _465
REMARK  188  A    between atoms: _469  and  _471
REMARK  189  A    between atoms: _471  and  _472
REMARK  190  A    between atoms: _471  and  _474
REMARK  191  A    between atoms: _474  and  _475
REMARK  192  A    between atoms: _477  and  _479
REMARK  193  A    between atoms: _479  and  _480
REMARK  194  A    between atoms: _479  and  _482
REMARK  195  A    between atoms: _482  and  _483
REMARK  196  A    between atoms: _486  and  _488
REMARK  197  A    between atoms: _488  and  _489
REMARK  198  A    between atoms: _488  and  _491
REMARK  199  A    between atoms: _491  and  _492
REMARK  200  A    between atoms: _492  and  _493
REMARK  201  A    between atoms: _496  and  _498
REMARK  202  A    between atoms: _498  and  _499
REMARK  203  A    between atoms: _502  and  _504
REMARK  204  A    between atoms: _504  and  _505
REMARK  205  A    between atoms: _504  and  _507
REMARK  206  A    between atoms: _507  and  _508
REMARK  207  A    between atoms: _510  and  _512
REMARK  208  A    between atoms: _512  and  _513
REMARK  209  A    between atoms: _515  and  _517
REMARK  210  A    between atoms: _517  and  _518
REMARK  211  A    between atoms: _517  and  _520
REMARK  212  A    between atoms: _520  and  _521
REMARK  213  A    between atoms: _524  and  _526
REMARK  214  A    between atoms: _526  and  _527
REMARK  215  A    between atoms: _529  and  _531
REMARK  216  A    between atoms: _531  and  _532
REMARK  217  A    between atoms: _531  and  _534
REMARK  218  A    between atoms: _534  and  _535
REMARK  219  A    between atoms: _540  and  _542
REMARK  220  A    between atoms: _542  and  _543
REMARK  221  A    between atoms: _542  and  _545
REMARK  222  A    between atoms: _545  and  _546
REMARK  223  A    between atoms: _546  and  _547
REMARK  224  A    between atoms: _554  and  _555
REMARK  225  A    between atoms: _555  and  _571
REMARK  226  A    between atoms: _556  and  _558
REMARK  227  A    between atoms: _558  and  _559
REMARK  228  A    between atoms: _559  and  _560
REMARK  229  A    between atoms: _564  and  _566
REMARK  230  A    between atoms: _566  and  _567
REMARK  231  A    between atoms: _566  and  _574
REMARK  232  A    between atoms: _567  and  _568
REMARK  233  A    between atoms: _568  and  _569
REMARK  234  A    between atoms: _569  and  _570
REMARK  235  A    between atoms: _570  and  _571
REMARK  236  A    between atoms: _576  and  _578
REMARK  237  A    between atoms: _578  and  _579
REMARK  238  A    between atoms: _578  and  _581
REMARK  239  A    between atoms: _581  and  _582
REMARK  240  A    between atoms: _585  and  _587
REMARK  241  A    between atoms: _587  and  _588
REMARK  242  A    between atoms: _590  and  _592
REMARK  243  A    between atoms: _592  and  _593
REMARK  244  A    between atoms: _596  and  _598
REMARK  245  A    between atoms: _598  and  _599
REMARK  246  A    between atoms: _598  and  _601
REMARK  247  A    between atoms: _601  and  _602
REMARK  248  A    between atoms: _607  and  _608
REMARK                            x       y       z     vdW  Elec       q    Type
REMARK                         _______ _______ _______ _____ _____    ______ ____
ROOT
ATOM      1  O   HOH     1      29.156  27.398  20.650  0.00  0.00    +0.000 OA
ENDROOT
TORSDOF 0
REMARK  Name = ../refined-set-2016/3g2n/3g2n_pocket.pdb
REMARK  248 active torsions:
REMARK  status: ('A' for Active; 'I' for Inactive)
REMARK    1  A    between atoms: _1  and  _3
REMARK    2  A    between atoms: _3  and  _4
REMARK    3  A    between atoms: _3  and  _6
REMARK    4  A    between atoms: _6  and  _7
REMARK    5  A    between atoms: _12  and  _13
REMARK    6  A    between atoms: _15  and  _17
REMARK    7  A    between atoms: _17  and  _18
REMARK    8  A    between atoms: _17  and  _20
REMARK    9  A    between atoms: _20  and  _21
REMARK   10  A    between atoms: _21  and  _22
REMARK   11  A    between atoms: _25  and  _27
REMARK   12  A    between atoms: _27  and  _28
REMARK   13  A    between atoms: _27  and  _30
REMARK   14  A    between atoms: _30  and  _31
REMARK   15  A    between atoms: _36  and  _38
REMARK   16  A    between atoms: _38  and  _39
REMARK   17  A    between atoms: _41  and  _43
REMARK   18  A    between atoms: _43  and  _44
REMARK   19  A    between atoms: _46  and  _48
REMARK   20  A    between atoms: _48  and  _49
REMARK   21  A    between atoms: _48  and  _51
REMARK   22  A    between atoms: _51  and  _52
REMARK   23  A    between atoms: _55  and  _57
REMARK   24  A    between atoms: _57  and  _58
REMARK   25  A    between atoms: _60  and  _62
REMARK   26  A    between atoms: _62  and  _63
REMARK   27  A    between atoms: _62  and  _65
REMARK   28  A    between atoms: _65  and  _66
REMARK   29  A    between atoms: _66  and  _67
REMARK   30  A    between atoms: _67  and  _68
REMARK   31  A    between atoms: _77  and  _79
REMARK   32  A    between atoms: _79  and  _80
REMARK   33  A    between atoms: _79  and  _82
REMARK   34  A    between atoms: _82  and  _83
REMARK   35  A    between atoms: _86  and  _88
REMARK   36  A    between atoms: _88  and  _89
REMARK   37  A    between atoms: _92  and  _94
REMARK   38  A    between atoms: _94  and  _95
REMARK   39  A    between atoms: _94  and  _97
REMARK   40  A    between atoms: _97  and  _98
REMARK   41  A    between atoms: _104  and  _106
REMARK   42  A    between atoms: _106  and  _107
REMARK   43  A    between atoms: _106  and  _109
REMARK   44  A    between atoms: _109  and  _110
REMARK   45  A    between atoms: _115  and  _117
REMARK   46  A    between atoms: _117  and  _118
REMARK   47  A    between atoms: _117  and  _120
REMARK   48  A    between atoms: _120  and  _121
REMARK   49  A    between atoms: _124  and  _126
REMARK   50  A    between atoms: _126  and  _127
REMARK   51  A    between atoms: _126  and  _129
REMARK   52  A    between atoms: _129  and  _130
REMARK   53  A    between atoms: _135  and  _137
REMARK   54  A    between atoms: _137  and  _138
REMARK   55  A    between atoms: _137  and  _140
REMARK   56  A    between atoms: _140  and  _141
REMARK   57  A    between atoms: _147  and  _149
REMARK   58  A    between atoms: _149  and  _150
REMARK   59  A    between atoms: _149  and  _152
REMARK   60  A    between atoms: _152  and  _153
REMARK   61  A    between atoms: _159  and  _161
REMARK   62  A    between atoms: _161  and  _162
REMARK   63  A    between atoms: _161  and  _164
REMARK   64  A    between atoms: _164  and  _165
REMARK   65  A    between atoms: _165  and  _166
REMARK   66  A    between atoms: _166  and  _167
REMARK   67  A    between atoms: _176  and  _178
REMARK   68  A    between atoms: _178  and  _179
REMARK   69  A    between atoms: _178  and  _181
REMARK   70  A    between atoms: _181  and  _182
REMARK   71  A    between atoms: _187  and  _189
REMARK   72  A    between atoms: _189  and  _190
REMARK   73  A    between atoms: _189  and  _192
REMARK   74  A    between atoms: _192  and  _193
REMARK   75  A    between atoms: _196  and  _198
REMARK   76  A    between atoms: _198  and  _199
REMARK   77  A    between atoms: _198  and  _201
REMARK   78  A    between atoms: _201  and  _202
REMARK   79  A    between atoms: _205  and  _207
REMARK   80  A    between atoms: _207  and  _208
REMARK   81  A    between atoms: _207  and  _210
REMARK   82  A    between atoms: _210  and  _211
REMARK   83  A    between atoms: _216  and  _218
REMARK   84  A    between atoms: _218  and  _219
REMARK   85  A    between atoms: _218  and  _221
REMARK   86  A    between atoms: _221  and  _222
REMARK   87  A    between atoms: _227  and  _228
REMARK   88  A    between atoms: _230  and  _232
REMARK   89  A    between atoms: _232  and  _233
REMARK   90  A    between atoms: _232  and  _235
REMARK   91  A    between atoms: _235  and  _236
REMARK   92  A    between atoms: _239  and  _241
REMARK   93  A    between atoms: _241  and  _242
REMARK   94  A    between atoms: _241  and  _244
REMARK   95  A    between atoms: _244  and  _245
REMARK   96  A    between atoms: _250  and  _252
REMARK   97  A    between atoms: _252  and  _253
REMARK   98  A    between atoms: _252  and  _255
REMARK   99  A    between atoms: _255  and  _256
REMARK  100  A    between atoms: _261  and  _263
REMARK  101  A    between atoms: _263  and  _264
REMARK  102  A    between atoms: _263  and  _266
REMARK  103  A    between atoms: _266  and  _267
REMARK  104  A    between atoms: _270  and  _272
REMARK  105  A    between atoms: _272  and  _273
REMARK  106  A    between atoms: _272  and  _275
REMARK  107  A    between atoms: _278  and  _280
REMARK  108  A    between atoms: _280  and  _281
REMARK  109  A    between atoms: _280  and  _283
REMARK  110  A    between atoms: _283  and  _284
REMARK  111  A    between atoms: _287  and  _289
REMARK  112  A    between atoms: _289  and  _290
REMARK  113  A    between atoms: _289  and  _292
REMARK  114  A    between atoms: _292  and  _293
REMARK  115  A    between atoms: _293  and  _294
REMARK  116  A    between atoms: _297  and  _299
REMARK  117  A    between atoms: _299  and  _300
REMARK  118  A    between atoms: _303  and  _305
REMARK  119  A    between atoms: _305  and  _306
REMARK  120  A    between atoms: _305  and  _308
REMARK  121  A    between atoms: _308  and  _309
REMARK  122  A    between atoms: _312  and  _314
REMARK  123  A    between atoms: _314  and  _315
REMARK  124  A    between atoms: _314  and  _317
REMARK  125  A    between atoms: _317  and  _318
REMARK  126  A    between atoms: _318  and  _319
REMARK  127  A    between atoms: _322  and  _324
REMARK  128  A    between atoms: _324  and  _325
REMARK  129  A    between atoms: _324  and  _327
REMARK  130  A    between atoms: _327  and  _328
REMARK  131  A    between atoms: _333  and  _335
REMARK  132  A    between atoms: _335  and  _336
REMARK  133  A    between atoms: _338  and  _340
REMARK  134  A    between atoms: _340  and  _341
REMARK  135  A    between atoms: _340  and  _343
REMARK  136  A    between atoms: _346  and  _348
REMARK  137  A    between atoms: _348  and  _349
REMARK  138  A    between atoms: _352  and  _354
REMARK  139  A    between atoms: _354  and  _355
REMARK  140  A    between atoms: _354  and  _357
REMARK  141  A    between atoms: _357  and  _358
REMARK  142  A    between atoms: _363  and  _365
REMARK  143  A    between atoms: _365  and  _366
REMARK  144  A    between atoms: _365  and  _368
REMARK  145  A    between atoms: _368  and  _369
REMARK  146  A    between atoms: _369  and  _370
REMARK  147  A    between atoms: _370  and  _371
REMARK  148  A    between atoms: _371  and  _372
REMARK  149  A    between atoms: _376  and  _378
REMARK  150  A    between atoms: _378  and  _379
REMARK  151  A    between atoms: _378  and  _381
REMARK  152  A    between atoms: _381  and  _382
REMARK  153  A    between atoms: _385  and  _387
REMARK  154  A    between atoms: _387  and  _388
REMARK  155  A    between atoms: _387  and  _390
REMARK  156  A    between atoms: _390  and  _391
REMARK  157  A    between atoms: _396  and  _398
REMARK  158  A    between atoms: _398  and  _399
REMARK  159  A    between atoms: _401  and  _403
REMARK  160  A    between atoms: _403  and  _404
REMARK  161  A    between atoms: _403  and  _406
REMARK  162  A    between atoms: _406  and  _407
REMARK  163  A    between atoms: _407  and  _408
REMARK  164  A    between atoms: _408  and  _409
REMARK  165  A    between atoms: _409  and  _410
REMARK  166  A    between atoms: _414  and  _416
REMARK  167  A    between atoms: _416  and  _417
REMARK  168  A    between atoms: _416  and  _419
REMARK  169  A    between atoms: _419  and  _420
REMARK  170  A    between atoms: _420  and  _421
REMARK  171  A    between atoms: _421  and  _422
REMARK  172  A    between atoms: _431  and  _433
REMARK  173  A    between atoms: _433  and  _434
REMARK  174  A    between atoms: _433  and  _436
REMARK  175  A    between atoms: _436  and  _437
REMARK  176  A    between atoms: _442  and  _444
REMARK  177  A    between atoms: _444  and  _445
REMARK  178  A    between atoms: _444  and  _447
REMARK  179  A    between atoms: _447  and  _448
REMARK  180  A    between atoms: _453  and  _454
REMARK  181  A    between atoms: _456  and  _458
REMARK  182  A    between atoms: _458  and  _459
REMARK  183  A    between atoms: _458  and  _461
REMARK  184  A    between atoms: _461  and  _462
REMARK  185  A    between atoms: _462  and  _463
REMARK  186  A    between atoms: _463  and  _464
REMARK  187  A    between atoms: _464  and  _465
REMARK  188  A    between atoms: _469  and  _471
REMARK  189  A    between atoms: _471  and  _472
REMARK  190  A    between atoms: _471  and  _474
REMARK  191  A    between atoms: _474  and  _475
REMARK  192  A    between atoms: _477  and  _479
REMARK  193  A    between atoms: _479  and  _480
REMARK  194  A    between atoms: _479  and  _482
REMARK  195  A    between atoms: _482  and  _483
REMARK  196  A    between atoms: _486  and  _488
REMARK  197  A    between atoms: _488  and  _489
REMARK  198  A    between atoms: _488  and  _491
REMARK  199  A    between atoms: _491  and  _492
REMARK  200  A    between atoms: _492  and  _493
REMARK  201  A    between atoms: _496  and  _498
REMARK  202  A    between atoms: _498  and  _499
REMARK  203  A    between atoms: _502  and  _504
REMARK  204  A    between atoms: _504  and  _505
REMARK  205  A    between atoms: _504  and  _507
REMARK  206  A    between atoms: _507  and  _508
REMARK  207  A    between atoms: _510  and  _512
REMARK  208  A    between atoms: _512  and  _513
REMARK  209  A    between atoms: _515  and  _517
REMARK  210  A    between atoms: _517  and  _518
REMARK  211  A    between atoms: _517  and  _520
REMARK  212  A    between atoms: _520  and  _521
REMARK  213  A    between atoms: _524  and  _526
REMARK  214  A    between atoms: _526  and  _527
REMARK  215  A    between atoms: _529  and  _531
REMARK  216  A    between atoms: _531  and  _532
REMARK  217  A    between atoms: _531  and  _534
REMARK  218  A    between atoms: _534  and  _535
REMARK  219  A    between atoms: _540  and  _542
REMARK  220  A    between atoms: _542  and  _543
REMARK  221  A    between atoms: _542  and  _545
REMARK  222  A    between atoms: _545  and  _546
REMARK  223  A    between atoms: _546  and  _547
REMARK  224  A    between atoms: _554  and  _555
REMARK  225  A    between atoms: _555  and  _571
REMARK  226  A    between atoms: _556  and  _558
REMARK  227  A    between atoms: _558  and  _559
REMARK  228  A    between atoms: _559  and  _560
REMARK  229  A    between atoms: _564  and  _566
REMARK  230  A    between atoms: _566  and  _567
REMARK  231  A    between atoms: _566  and  _574
REMARK  232  A    between atoms: _567  and  _568
REMARK  233  A    between atoms: _568  and  _569
REMARK  234  A    between atoms: _569  and  _570
REMARK  235  A    between atoms: _570  and  _571
REMARK  236  A    between atoms: _576  and  _578
REMARK  237  A    between atoms: _578  and  _579
REMARK  238  A    between atoms: _578  and  _581
REMARK  239  A    between atoms: _581  and  _582
REMARK  240  A    between atoms: _585  and  _587
REMARK  241  A    between atoms: _587  and  _588
REMARK  242  A    between atoms: _590  and  _592
REMARK  243  A    between atoms: _592  and  _593
REMARK  244  A    between atoms: _596  and  _598
REMARK  245  A    between atoms: _598  and  _599
REMARK  246  A    between atoms: _598  and  _601
REMARK  247  A    between atoms: _601  and  _602
REMARK  248  A    between atoms: _607  and  _608
REMARK                            x       y       z     vdW  Elec       q    Type
REMARK                         _______ _______ _______ _____ _____    ______ ____
ROOT
ATOM      1  O   HOH     1      26.244  16.609  28.692  0.00  0.00    +0.000 OA
ENDROOT
TORSDOF 0
REMARK  Name = ../refined-set-2016/3g2n/3g2n_pocket.pdb
REMARK  248 active torsions:
REMARK  status: ('A' for Active; 'I' for Inactive)
REMARK    1  A    between atoms: _1  and  _3
REMARK    2  A    between atoms: _3  and  _4
REMARK    3  A    between atoms: _3  and  _6
REMARK    4  A    between atoms: _6  and  _7
REMARK    5  A    between atoms: _12  and  _13
REMARK    6  A    between atoms: _15  and  _17
REMARK    7  A    between atoms: _17  and  _18
REMARK    8  A    between atoms: _17  and  _20
REMARK    9  A    between atoms: _20  and  _21
REMARK   10  A    between atoms: _21  and  _22
REMARK   11  A    between atoms: _25  and  _27
REMARK   12  A    between atoms: _27  and  _28
REMARK   13  A    between atoms: _27  and  _30
REMARK   14  A    between atoms: _30  and  _31
REMARK   15  A    between atoms: _36  and  _38
REMARK   16  A    between atoms: _38  and  _39
REMARK   17  A    between atoms: _41  and  _43
REMARK   18  A    between atoms: _43  and  _44
REMARK   19  A    between atoms: _46  and  _48
REMARK   20  A    between atoms: _48  and  _49
REMARK   21  A    between atoms: _48  and  _51
REMARK   22  A    between atoms: _51  and  _52
REMARK   23  A    between atoms: _55  and  _57
REMARK   24  A    between atoms: _57  and  _58
REMARK   25  A    between atoms: _60  and  _62
REMARK   26  A    between atoms: _62  and  _63
REMARK   27  A    between atoms: _62  and  _65
REMARK   28  A    between atoms: _65  and  _66
REMARK   29  A    between atoms: _66  and  _67
REMARK   30  A    between atoms: _67  and  _68
REMARK   31  A    between atoms: _77  and  _79
REMARK   32  A    between atoms: _79  and  _80
REMARK   33  A    between atoms: _79  and  _82
REMARK   34  A    between atoms: _82  and  _83
REMARK   35  A    between atoms: _86  and  _88
REMARK   36  A    between atoms: _88  and  _89
REMARK   37  A    between atoms: _92  and  _94
REMARK   38  A    between atoms: _94  and  _95
REMARK   39  A    between atoms: _94  and  _97
REMARK   40  A    between atoms: _97  and  _98
REMARK   41  A    between atoms: _104  and  _106
REMARK   42  A    between atoms: _106  and  _107
REMARK   43  A    between atoms: _106  and  _109
REMARK   44  A    between atoms: _109  and  _110
REMARK   45  A    between atoms: _115  and  _117
REMARK   46  A    between atoms: _117  and  _118
REMARK   47  A    between atoms: _117  and  _120
REMARK   48  A    between atoms: _120  and  _121
REMARK   49  A    between atoms: _124  and  _126
REMARK   50  A    between atoms: _126  and  _127
REMARK   51  A    between atoms: _126  and  _129
REMARK   52  A    between atoms: _129  and  _130
REMARK   53  A    between atoms: _135  and  _137
REMARK   54  A    between atoms: _137  and  _138
REMARK   55  A    between atoms: _137  and  _140
REMARK   56  A    between atoms: _140  and  _141
REMARK   57  A    between atoms: _147  and  _149
REMARK   58  A    between atoms: _149  and  _150
REMARK   59  A    between atoms: _149  and  _152
REMARK   60  A    between atoms: _152  and  _153
REMARK   61  A    between atoms: _159  and  _161
REMARK   62  A    between atoms: _161  and  _162
REMARK   63  A    between atoms: _161  and  _164
REMARK   64  A    between atoms: _164  and  _165
REMARK   65  A    between atoms: _165  and  _166
REMARK   66  A    between atoms: _166  and  _167
REMARK   67  A    between atoms: _176  and  _178
REMARK   68  A    between atoms: _178  and  _179
REMARK   69  A    between atoms: _178  and  _181
REMARK   70  A    between atoms: _181  and  _182
REMARK   71  A    between atoms: _187  and  _189
REMARK   72  A    between atoms: _189  and  _190
REMARK   73  A    between atoms: _189  and  _192
REMARK   74  A    between atoms: _192  and  _193
REMARK   75  A    between atoms: _196  and  _198
REMARK   76  A    between atoms: _198  and  _199
REMARK   77  A    between atoms: _198  and  _201
REMARK   78  A    between atoms: _201  and  _202
REMARK   79  A    between atoms: _205  and  _207
REMARK   80  A    between atoms: _207  and  _208
REMARK   81  A    between atoms: _207  and  _210
REMARK   82  A    between atoms: _210  and  _211
REMARK   83  A    between atoms: _216  and  _218
REMARK   84  A    between atoms: _218  and  _219
REMARK   85  A    between atoms: _218  and  _221
REMARK   86  A    between atoms: _221  and  _222
REMARK   87  A    between atoms: _227  and  _228
REMARK   88  A    between atoms: _230  and  _232
REMARK   89  A    between atoms: _232  and  _233
REMARK   90  A    between atoms: _232  and  _235
REMARK   91  A    between atoms: _235  and  _236
REMARK   92  A    between atoms: _239  and  _241
REMARK   93  A    between atoms: _241  and  _242
REMARK   94  A    between atoms: _241  and  _244
REMARK   95  A    between atoms: _244  and  _245
REMARK   96  A    between atoms: _250  and  _252
REMARK   97  A    between atoms: _252  and  _253
REMARK   98  A    between atoms: _252  and  _255
REMARK   99  A    between atoms: _255  and  _256
REMARK  100  A    between atoms: _261  and  _263
REMARK  101  A    between atoms: _263  and  _264
REMARK  102  A    between atoms: _263  and  _266
REMARK  103  A    between atoms: _266  and  _267
REMARK  104  A    between atoms: _270  and  _272
REMARK  105  A    between atoms: _272  and  _273
REMARK  106  A    between atoms: _272  and  _275
REMARK  107  A    between atoms: _278  and  _280
REMARK  108  A    between atoms: _280  and  _281
REMARK  109  A    between atoms: _280  and  _283
REMARK  110  A    between atoms: _283  and  _284
REMARK  111  A    between atoms: _287  and  _289
REMARK  112  A    between atoms: _289  and  _290
REMARK  113  A    between atoms: _289  and  _292
REMARK  114  A    between atoms: _292  and  _293
REMARK  115  A    between atoms: _293  and  _294
REMARK  116  A    between atoms: _297  and  _299
REMARK  117  A    between atoms: _299  and  _300
REMARK  118  A    between atoms: _303  and  _305
REMARK  119  A    between atoms: _305  and  _306
REMARK  120  A    between atoms: _305  and  _308
REMARK  121  A    between atoms: _308  and  _309
REMARK  122  A    between atoms: _312  and  _314
REMARK  123  A    between atoms: _314  and  _315
REMARK  124  A    between atoms: _314  and  _317
REMARK  125  A    between atoms: _317  and  _318
REMARK  126  A    between atoms: _318  and  _319
REMARK  127  A    between atoms: _322  and  _324
REMARK  128  A    between atoms: _324  and  _325
REMARK  129  A    between atoms: _324  and  _327
REMARK  130  A    between atoms: _327  and  _328
REMARK  131  A    between atoms: _333  and  _335
REMARK  132  A    between atoms: _335  and  _336
REMARK  133  A    between atoms: _338  and  _340
REMARK  134  A    between atoms: _340  and  _341
REMARK  135  A    between atoms: _340  and  _343
REMARK  136  A    between atoms: _346  and  _348
REMARK  137  A    between atoms: _348  and  _349
REMARK  138  A    between atoms: _352  and  _354
REMARK  139  A    between atoms: _354  and  _355
REMARK  140  A    between atoms: _354  and  _357
REMARK  141  A    between atoms: _357  and  _358
REMARK  142  A    between atoms: _363  and  _365
REMARK  143  A    between atoms: _365  and  _366
REMARK  144  A    between atoms: _365  and  _368
REMARK  145  A    between atoms: _368  and  _369
REMARK  146  A    between atoms: _369  and  _370
REMARK  147  A    between atoms: _370  and  _371
REMARK  148  A    between atoms: _371  and  _372
REMARK  149  A    between atoms: _376  and  _378
REMARK  150  A    between atoms: _378  and  _379
REMARK  151  A    between atoms: _378  and  _381
REMARK  152  A    between atoms: _381  and  _382
REMARK  153  A    between atoms: _385  and  _387
REMARK  154  A    between atoms: _387  and  _388
REMARK  155  A    between atoms: _387  and  _390
REMARK  156  A    between atoms: _390  and  _391
REMARK  157  A    between atoms: _396  and  _398
REMARK  158  A    between atoms: _398  and  _399
REMARK  159  A    between atoms: _401  and  _403
REMARK  160  A    between atoms: _403  and  _404
REMARK  161  A    between atoms: _403  and  _406
REMARK  162  A    between atoms: _406  and  _407
REMARK  163  A    between atoms: _407  and  _408
REMARK  164  A    between atoms: _408  and  _409
REMARK  165  A    between atoms: _409  and  _410
REMARK  166  A    between atoms: _414  and  _416
REMARK  167  A    between atoms: _416  and  _417
REMARK  168  A    between atoms: _416  and  _419
REMARK  169  A    between atoms: _419  and  _420
REMARK  170  A    between atoms: _420  and  _421
REMARK  171  A    between atoms: _421  and  _422
REMARK  172  A    between atoms: _431  and  _433
REMARK  173  A    between atoms: _433  and  _434
REMARK  174  A    between atoms: _433  and  _436
REMARK  175  A    between atoms: _436  and  _437
REMARK  176  A    between atoms: _442  and  _444
REMARK  177  A    between atoms: _444  and  _445
REMARK  178  A    between atoms: _444  and  _447
REMARK  179  A    between atoms: _447  and  _448
REMARK  180  A    between atoms: _453  and  _454
REMARK  181  A    between atoms: _456  and  _458
REMARK  182  A    between atoms: _458  and  _459
REMARK  183  A    between atoms: _458  and  _461
REMARK  184  A    between atoms: _461  and  _462
REMARK  185  A    between atoms: _462  and  _463
REMARK  186  A    between atoms: _463  and  _464
REMARK  187  A    between atoms: _464  and  _465
REMARK  188  A    between atoms: _469  and  _471
REMARK  189  A    between atoms: _471  and  _472
REMARK  190  A    between atoms: _471  and  _474
REMARK  191  A    between atoms: _474  and  _475
REMARK  192  A    between atoms: _477  and  _479
REMARK  193  A    between atoms: _479  and  _480
REMARK  194  A    between atoms: _479  and  _482
REMARK  195  A    between atoms: _482  and  _483
REMARK  196  A    between atoms: _486  and  _488
REMARK  197  A    between atoms: _488  and  _489
REMARK  198  A    between atoms: _488  and  _491
REMARK  199  A    between atoms: _491  and  _492
REMARK  200  A    between atoms: _492  and  _493
REMARK  201  A    between atoms: _496  and  _498
REMARK  202  A    between atoms: _498  and  _499
REMARK  203  A    between atoms: _502  and  _504
REMARK  204  A    between atoms: _504  and  _505
REMARK  205  A    between atoms: _504  and  _507
REMARK  206  A    between atoms: _507  and  _508
REMARK  207  A    between atoms: _510  and  _512
REMARK  208  A    between atoms: _512  and  _513
REMARK  209  A    between atoms: _515  and  _517
REMARK  210  A    between atoms: _517  and  _518
REMARK  211  A    between atoms: _517  and  _520
REMARK  212  A    between atoms: _520  and  _521
REMARK  213  A    between atoms: _524  and  _526
REMARK  214  A    between atoms: _526  and  _527
REMARK  215  A    between atoms: _529  and  _531
REMARK  216  A    between atoms: _531  and  _532
REMARK  217  A    between atoms: _531  and  _534
REMARK  218  A    between atoms: _534  and  _535
REMARK  219  A    between atoms: _540  and  _542
REMARK  220  A    between atoms: _542  and  _543
REMARK  221  A    between atoms: _542  and  _545
REMARK  222  A    between atoms: _545  and  _546
REMARK  223  A    between atoms: _546  and  _547
REMARK  224  A    between atoms: _554  and  _555
REMARK  225  A    between atoms: _555  and  _571
REMARK  226  A    between atoms: _556  and  _558
REMARK  227  A    between atoms: _558  and  _559
REMARK  228  A    between atoms: _559  and  _560
REMARK  229  A    between atoms: _564  and  _566
REMARK  230  A    between atoms: _566  and  _567
REMARK  231  A    between atoms: _566  and  _574
REMARK  232  A    between atoms: _567  and  _568
REMARK  233  A    between atoms: _568  and  _569
REMARK  234  A    between atoms: _569  and  _570
REMARK  235  A    between atoms: _570  and  _571
REMARK  236  A    between atoms: _576  and  _578
REMARK  237  A    between atoms: _578  and  _579
REMARK  238  A    between atoms: _578  and  _581
REMARK  239  A    between atoms: _581  and  _582
REMARK  240  A    between atoms: _585  and  _587
REMARK  241  A    between atoms: _587  and  _588
REMARK  242  A    between atoms: _590  and  _592
REMARK  243  A    between atoms: _592  and  _593
REMARK  244  A    between atoms: _596  and  _598
REMARK  245  A    between atoms: _598  and  _599
REMARK  246  A    between atoms: _598  and  _601
REMARK  247  A    between atoms: _601  and  _602
REMARK  248  A    between atoms: _607  and  _608
REMARK                            x       y       z     vdW  Elec       q    Type
REMARK                         _______ _______ _______ _____ _____    ______ ____
ROOT
ATOM      1  O   HOH     1      44.484  22.933  32.112  0.00  0.00    +0.000 OA
ENDROOT
TORSDOF 0
REMARK  Name = ../refined-set-2016/3g2n/3g2n_pocket.pdb
REMARK  248 active torsions:
REMARK  status: ('A' for Active; 'I' for Inactive)
REMARK    1  A    between atoms: _1  and  _3
REMARK    2  A    between atoms: _3  and  _4
REMARK    3  A    between atoms: _3  and  _6
REMARK    4  A    between atoms: _6  and  _7
REMARK    5  A    between atoms: _12  and  _13
REMARK    6  A    between atoms: _15  and  _17
REMARK    7  A    between atoms: _17  and  _18
REMARK    8  A    between atoms: _17  and  _20
REMARK    9  A    between atoms: _20  and  _21
REMARK   10  A    between atoms: _21  and  _22
REMARK   11  A    between atoms: _25  and  _27
REMARK   12  A    between atoms: _27  and  _28
REMARK   13  A    between atoms: _27  and  _30
REMARK   14  A    between atoms: _30  and  _31
REMARK   15  A    between atoms: _36  and  _38
REMARK   16  A    between atoms: _38  and  _39
REMARK   17  A    between atoms: _41  and  _43
REMARK   18  A    between atoms: _43  and  _44
REMARK   19  A    between atoms: _46  and  _48
REMARK   20  A    between atoms: _48  and  _49
REMARK   21  A    between atoms: _48  and  _51
REMARK   22  A    between atoms: _51  and  _52
REMARK   23  A    between atoms: _55  and  _57
REMARK   24  A    between atoms: _57  and  _58
REMARK   25  A    between atoms: _60  and  _62
REMARK   26  A    between atoms: _62  and  _63
REMARK   27  A    between atoms: _62  and  _65
REMARK   28  A    between atoms: _65  and  _66
REMARK   29  A    between atoms: _66  and  _67
REMARK   30  A    between atoms: _67  and  _68
REMARK   31  A    between atoms: _77  and  _79
REMARK   32  A    between atoms: _79  and  _80
REMARK   33  A    between atoms: _79  and  _82
REMARK   34  A    between atoms: _82  and  _83
REMARK   35  A    between atoms: _86  and  _88
REMARK   36  A    between atoms: _88  and  _89
REMARK   37  A    between atoms: _92  and  _94
REMARK   38  A    between atoms: _94  and  _95
REMARK   39  A    between atoms: _94  and  _97
REMARK   40  A    between atoms: _97  and  _98
REMARK   41  A    between atoms: _104  and  _106
REMARK   42  A    between atoms: _106  and  _107
REMARK   43  A    between atoms: _106  and  _109
REMARK   44  A    between atoms: _109  and  _110
REMARK   45  A    between atoms: _115  and  _117
REMARK   46  A    between atoms: _117  and  _118
REMARK   47  A    between atoms: _117  and  _120
REMARK   48  A    between atoms: _120  and  _121
REMARK   49  A    between atoms: _124  and  _126
REMARK   50  A    between atoms: _126  and  _127
REMARK   51  A    between atoms: _126  and  _129
REMARK   52  A    between atoms: _129  and  _130
REMARK   53  A    between atoms: _135  and  _137
REMARK   54  A    between atoms: _137  and  _138
REMARK   55  A    between atoms: _137  and  _140
REMARK   56  A    between atoms: _140  and  _141
REMARK   57  A    between atoms: _147  and  _149
REMARK   58  A    between atoms: _149  and  _150
REMARK   59  A    between atoms: _149  and  _152
REMARK   60  A    between atoms: _152  and  _153
REMARK   61  A    between atoms: _159  and  _161
REMARK   62  A    between atoms: _161  and  _162
REMARK   63  A    between atoms: _161  and  _164
REMARK   64  A    between atoms: _164  and  _165
REMARK   65  A    between atoms: _165  and  _166
REMARK   66  A    between atoms: _166  and  _167
REMARK   67  A    between atoms: _176  and  _178
REMARK   68  A    between atoms: _178  and  _179
REMARK   69  A    between atoms: _178  and  _181
REMARK   70  A    between atoms: _181  and  _182
REMARK   71  A    between atoms: _187  and  _189
REMARK   72  A    between atoms: _189  and  _190
REMARK   73  A    between atoms: _189  and  _192
REMARK   74  A    between atoms: _192  and  _193
REMARK   75  A    between atoms: _196  and  _198
REMARK   76  A    between atoms: _198  and  _199
REMARK   77  A    between atoms: _198  and  _201
REMARK   78  A    between atoms: _201  and  _202
REMARK   79  A    between atoms: _205  and  _207
REMARK   80  A    between atoms: _207  and  _208
REMARK   81  A    between atoms: _207  and  _210
REMARK   82  A    between atoms: _210  and  _211
REMARK   83  A    between atoms: _216  and  _218
REMARK   84  A    between atoms: _218  and  _219
REMARK   85  A    between atoms: _218  and  _221
REMARK   86  A    between atoms: _221  and  _222
REMARK   87  A    between atoms: _227  and  _228
REMARK   88  A    between atoms: _230  and  _232
REMARK   89  A    between atoms: _232  and  _233
REMARK   90  A    between atoms: _232  and  _235
REMARK   91  A    between atoms: _235  and  _236
REMARK   92  A    between atoms: _239  and  _241
REMARK   93  A    between atoms: _241  and  _242
REMARK   94  A    between atoms: _241  and  _244
REMARK   95  A    between atoms: _244  and  _245
REMARK   96  A    between atoms: _250  and  _252
REMARK   97  A    between atoms: _252  and  _253
REMARK   98  A    between atoms: _252  and  _255
REMARK   99  A    between atoms: _255  and  _256
REMARK  100  A    between atoms: _261  and  _263
REMARK  101  A    between atoms: _263  and  _264
REMARK  102  A    between atoms: _263  and  _266
REMARK  103  A    between atoms: _266  and  _267
REMARK  104  A    between atoms: _270  and  _272
REMARK  105  A    between atoms: _272  and  _273
REMARK  106  A    between atoms: _272  and  _275
REMARK  107  A    between atoms: _278  and  _280
REMARK  108  A    between atoms: _280  and  _281
REMARK  109  A    between atoms: _280  and  _283
REMARK  110  A    between atoms: _283  and  _284
REMARK  111  A    between atoms: _287  and  _289
REMARK  112  A    between atoms: _289  and  _290
REMARK  113  A    between atoms: _289  and  _292
REMARK  114  A    between atoms: _292  and  _293
REMARK  115  A    between atoms: _293  and  _294
REMARK  116  A    between atoms: _297  and  _299
REMARK  117  A    between atoms: _299  and  _300
REMARK  118  A    between atoms: _303  and  _305
REMARK  119  A    between atoms: _305  and  _306
REMARK  120  A    between atoms: _305  and  _308
REMARK  121  A    between atoms: _308  and  _309
REMARK  122  A    between atoms: _312  and  _314
REMARK  123  A    between atoms: _314  and  _315
REMARK  124  A    between atoms: _314  and  _317
REMARK  125  A    between atoms: _317  and  _318
REMARK  126  A    between atoms: _318  and  _319
REMARK  127  A    between atoms: _322  and  _324
REMARK  128  A    between atoms: _324  and  _325
REMARK  129  A    between atoms: _324  and  _327
REMARK  130  A    between atoms: _327  and  _328
REMARK  131  A    between atoms: _333  and  _335
REMARK  132  A    between atoms: _335  and  _336
REMARK  133  A    between atoms: _338  and  _340
REMARK  134  A    between atoms: _340  and  _341
REMARK  135  A    between atoms: _340  and  _343
REMARK  136  A    between atoms: _346  and  _348
REMARK  137  A    between atoms: _348  and  _349
REMARK  138  A    between atoms: _352  and  _354
REMARK  139  A    between atoms: _354  and  _355
REMARK  140  A    between atoms: _354  and  _357
REMARK  141  A    between atoms: _357  and  _358
REMARK  142  A    between atoms: _363  and  _365
REMARK  143  A    between atoms: _365  and  _366
REMARK  144  A    between atoms: _365  and  _368
REMARK  145  A    between atoms: _368  and  _369
REMARK  146  A    between atoms: _369  and  _370
REMARK  147  A    between atoms: _370  and  _371
REMARK  148  A    between atoms: _371  and  _372
REMARK  149  A    between atoms: _376  and  _378
REMARK  150  A    between atoms: _378  and  _379
REMARK  151  A    between atoms: _378  and  _381
REMARK  152  A    between atoms: _381  and  _382
REMARK  153  A    between atoms: _385  and  _387
REMARK  154  A    between atoms: _387  and  _388
REMARK  155  A    between atoms: _387  and  _390
REMARK  156  A    between atoms: _390  and  _391
REMARK  157  A    between atoms: _396  and  _398
REMARK  158  A    between atoms: _398  and  _399
REMARK  159  A    between atoms: _401  and  _403
REMARK  160  A    between atoms: _403  and  _404
REMARK  161  A    between atoms: _403  and  _406
REMARK  162  A    between atoms: _406  and  _407
REMARK  163  A    between atoms: _407  and  _408
REMARK  164  A    between atoms: _408  and  _409
REMARK  165  A    between atoms: _409  and  _410
REMARK  166  A    between atoms: _414  and  _416
REMARK  167  A    between atoms: _416  and  _417
REMARK  168  A    between atoms: _416  and  _419
REMARK  169  A    between atoms: _419  and  _420
REMARK  170  A    between atoms: _420  and  _421
REMARK  171  A    between atoms: _421  and  _422
REMARK  172  A    between atoms: _431  and  _433
REMARK  173  A    between atoms: _433  and  _434
REMARK  174  A    between atoms: _433  and  _436
REMARK  175  A    between atoms: _436  and  _437
REMARK  176  A    between atoms: _442  and  _444
REMARK  177  A    between atoms: _444  and  _445
REMARK  178  A    between atoms: _444  and  _447
REMARK  179  A    between atoms: _447  and  _448
REMARK  180  A    between atoms: _453  and  _454
REMARK  181  A    between atoms: _456  and  _458
REMARK  182  A    between atoms: _458  and  _459
REMARK  183  A    between atoms: _458  and  _461
REMARK  184  A    between atoms: _461  and  _462
REMARK  185  A    between atoms: _462  and  _463
REMARK  186  A    between atoms: _463  and  _464
REMARK  187  A    between atoms: _464  and  _465
REMARK  188  A    between atoms: _469  and  _471
REMARK  189  A    between atoms: _471  and  _472
REMARK  190  A    between atoms: _471  and  _474
REMARK  191  A    between atoms: _474  and  _475
REMARK  192  A    between atoms: _477  and  _479
REMARK  193  A    between atoms: _479  and  _480
REMARK  194  A    between atoms: _479  and  _482
REMARK  195  A    between atoms: _482  and  _483
REMARK  196  A    between atoms: _486  and  _488
REMARK  197  A    between atoms: _488  and  _489
REMARK  198  A    between atoms: _488  and  _491
REMARK  199  A    between atoms: _491  and  _492
REMARK  200  A    between atoms: _492  and  _493
REMARK  201  A    between atoms: _496  and  _498
REMARK  202  A    between atoms: _498  and  _499
REMARK  203  A    between atoms: _502  and  _504
REMARK  204  A    between atoms: _504  and  _505
REMARK  205  A    between atoms: _504  and  _507
REMARK  206  A    between atoms: _507  and  _508
REMARK  207  A    between atoms: _510  and  _512
REMARK  208  A    between atoms: _512  and  _513
REMARK  209  A    between atoms: _515  and  _517
REMARK  210  A    between atoms: _517  and  _518
REMARK  211  A    between atoms: _517  and  _520
REMARK  212  A    between atoms: _520  and  _521
REMARK  213  A    between atoms: _524  and  _526
REMARK  214  A    between atoms: _526  and  _527
REMARK  215  A    between atoms: _529  and  _531
REMARK  216  A    between atoms: _531  and  _532
REMARK  217  A    between atoms: _531  and  _534
REMARK  218  A    between atoms: _534  and  _535
REMARK  219  A    between atoms: _540  and  _542
REMARK  220  A    between atoms: _542  and  _543
REMARK  221  A    between atoms: _542  and  _545
REMARK  222  A    between atoms: _545  and  _546
REMARK  223  A    between atoms: _546  and  _547
REMARK  224  A    between atoms: _554  and  _555
REMARK  225  A    between atoms: _555  and  _571
REMARK  226  A    between atoms: _556  and  _558
REMARK  227  A    between atoms: _558  and  _559
REMARK  228  A    between atoms: _559  and  _560
REMARK  229  A    between atoms: _564  and  _566
REMARK  230  A    between atoms: _566  and  _567
REMARK  231  A    between atoms: _566  and  _574
REMARK  232  A    between atoms: _567  and  _568
REMARK  233  A    between atoms: _568  and  _569
REMARK  234  A    between atoms: _569  and  _570
REMARK  235  A    between atoms: _570  and  _571
REMARK  236  A    between atoms: _576  and  _578
REMARK  237  A    between atoms: _578  and  _579
REMARK  238  A    between atoms: _578  and  _581
REMARK  239  A    between atoms: _581  and  _582
REMARK  240  A    between atoms: _585  and  _587
REMARK  241  A    between atoms: _587  and  _588
REMARK  242  A    between atoms: _590  and  _592
REMARK  243  A    between atoms: _592  and  _593
REMARK  244  A    between atoms: _596  and  _598
REMARK  245  A    between atoms: _598  and  _599
REMARK  246  A    between atoms: _598  and  _601
REMARK  247  A    between atoms: _601  and  _602
REMARK  248  A    between atoms: _607  and  _608
REMARK                            x       y       z     vdW  Elec       q    Type
REMARK                         _______ _______ _______ _____ _____    ______ ____
ROOT
ATOM      1  O   HOH     1      30.325  25.927  29.043  0.00  0.00    +0.000 OA
ENDROOT
TORSDOF 0
REMARK  Name = ../refined-set-2016/3g2n/3g2n_pocket.pdb
REMARK  248 active torsions:
REMARK  status: ('A' for Active; 'I' for Inactive)
REMARK    1  A    between atoms: _1  and  _3
REMARK    2  A    between atoms: _3  and  _4
REMARK    3  A    between atoms: _3  and  _6
REMARK    4  A    between atoms: _6  and  _7
REMARK    5  A    between atoms: _12  and  _13
REMARK    6  A    between atoms: _15  and  _17
REMARK    7  A    between atoms: _17  and  _18
REMARK    8  A    between atoms: _17  and  _20
REMARK    9  A    between atoms: _20  and  _21
REMARK   10  A    between atoms: _21  and  _22
REMARK   11  A    between atoms: _25  and  _27
REMARK   12  A    between atoms: _27  and  _28
REMARK   13  A    between atoms: _27  and  _30
REMARK   14  A    between atoms: _30  and  _31
REMARK   15  A    between atoms: _36  and  _38
REMARK   16  A    between atoms: _38  and  _39
REMARK   17  A    between atoms: _41  and  _43
REMARK   18  A    between atoms: _43  and  _44
REMARK   19  A    between atoms: _46  and  _48
REMARK   20  A    between atoms: _48  and  _49
REMARK   21  A    between atoms: _48  and  _51
REMARK   22  A    between atoms: _51  and  _52
REMARK   23  A    between atoms: _55  and  _57
REMARK   24  A    between atoms: _57  and  _58
REMARK   25  A    between atoms: _60  and  _62
REMARK   26  A    between atoms: _62  and  _63
REMARK   27  A    between atoms: _62  and  _65
REMARK   28  A    between atoms: _65  and  _66
REMARK   29  A    between atoms: _66  and  _67
REMARK   30  A    between atoms: _67  and  _68
REMARK   31  A    between atoms: _77  and  _79
REMARK   32  A    between atoms: _79  and  _80
REMARK   33  A    between atoms: _79  and  _82
REMARK   34  A    between atoms: _82  and  _83
REMARK   35  A    between atoms: _86  and  _88
REMARK   36  A    between atoms: _88  and  _89
REMARK   37  A    between atoms: _92  and  _94
REMARK   38  A    between atoms: _94  and  _95
REMARK   39  A    between atoms: _94  and  _97
REMARK   40  A    between atoms: _97  and  _98
REMARK   41  A    between atoms: _104  and  _106
REMARK   42  A    between atoms: _106  and  _107
REMARK   43  A    between atoms: _106  and  _109
REMARK   44  A    between atoms: _109  and  _110
REMARK   45  A    between atoms: _115  and  _117
REMARK   46  A    between atoms: _117  and  _118
REMARK   47  A    between atoms: _117  and  _120
REMARK   48  A    between atoms: _120  and  _121
REMARK   49  A    between atoms: _124  and  _126
REMARK   50  A    between atoms: _126  and  _127
REMARK   51  A    between atoms: _126  and  _129
REMARK   52  A    between atoms: _129  and  _130
REMARK   53  A    between atoms: _135  and  _137
REMARK   54  A    between atoms: _137  and  _138
REMARK   55  A    between atoms: _137  and  _140
REMARK   56  A    between atoms: _140  and  _141
REMARK   57  A    between atoms: _147  and  _149
REMARK   58  A    between atoms: _149  and  _150
REMARK   59  A    between atoms: _149  and  _152
REMARK   60  A    between atoms: _152  and  _153
REMARK   61  A    between atoms: _159  and  _161
REMARK   62  A    between atoms: _161  and  _162
REMARK   63  A    between atoms: _161  and  _164
REMARK   64  A    between atoms: _164  and  _165
REMARK   65  A    between atoms: _165  and  _166
REMARK   66  A    between atoms: _166  and  _167
REMARK   67  A    between atoms: _176  and  _178
REMARK   68  A    between atoms: _178  and  _179
REMARK   69  A    between atoms: _178  and  _181
REMARK   70  A    between atoms: _181  and  _182
REMARK   71  A    between atoms: _187  and  _189
REMARK   72  A    between atoms: _189  and  _190
REMARK   73  A    between atoms: _189  and  _192
REMARK   74  A    between atoms: _192  and  _193
REMARK   75  A    between atoms: _196  and  _198
REMARK   76  A    between atoms: _198  and  _199
REMARK   77  A    between atoms: _198  and  _201
REMARK   78  A    between atoms: _201  and  _202
REMARK   79  A    between atoms: _205  and  _207
REMARK   80  A    between atoms: _207  and  _208
REMARK   81  A    between atoms: _207  and  _210
REMARK   82  A    between atoms: _210  and  _211
REMARK   83  A    between atoms: _216  and  _218
REMARK   84  A    between atoms: _218  and  _219
REMARK   85  A    between atoms: _218  and  _221
REMARK   86  A    between atoms: _221  and  _222
REMARK   87  A    between atoms: _227  and  _228
REMARK   88  A    between atoms: _230  and  _232
REMARK   89  A    between atoms: _232  and  _233
REMARK   90  A    between atoms: _232  and  _235
REMARK   91  A    between atoms: _235  and  _236
REMARK   92  A    between atoms: _239  and  _241
REMARK   93  A    between atoms: _241  and  _242
REMARK   94  A    between atoms: _241  and  _244
REMARK   95  A    between atoms: _244  and  _245
REMARK   96  A    between atoms: _250  and  _252
REMARK   97  A    between atoms: _252  and  _253
REMARK   98  A    between atoms: _252  and  _255
REMARK   99  A    between atoms: _255  and  _256
REMARK  100  A    between atoms: _261  and  _263
REMARK  101  A    between atoms: _263  and  _264
REMARK  102  A    between atoms: _263  and  _266
REMARK  103  A    between atoms: _266  and  _267
REMARK  104  A    between atoms: _270  and  _272
REMARK  105  A    between atoms: _272  and  _273
REMARK  106  A    between atoms: _272  and  _275
REMARK  107  A    between atoms: _278  and  _280
REMARK  108  A    between atoms: _280  and  _281
REMARK  109  A    between atoms: _280  and  _283
REMARK  110  A    between atoms: _283  and  _284
REMARK  111  A    between atoms: _287  and  _289
REMARK  112  A    between atoms: _289  and  _290
REMARK  113  A    between atoms: _289  and  _292
REMARK  114  A    between atoms: _292  and  _293
REMARK  115  A    between atoms: _293  and  _294
REMARK  116  A    between atoms: _297  and  _299
REMARK  117  A    between atoms: _299  and  _300
REMARK  118  A    between atoms: _303  and  _305
REMARK  119  A    between atoms: _305  and  _306
REMARK  120  A    between atoms: _305  and  _308
REMARK  121  A    between atoms: _308  and  _309
REMARK  122  A    between atoms: _312  and  _314
REMARK  123  A    between atoms: _314  and  _315
REMARK  124  A    between atoms: _314  and  _317
REMARK  125  A    between atoms: _317  and  _318
REMARK  126  A    between atoms: _318  and  _319
REMARK  127  A    between atoms: _322  and  _324
REMARK  128  A    between atoms: _324  and  _325
REMARK  129  A    between atoms: _324  and  _327
REMARK  130  A    between atoms: _327  and  _328
REMARK  131  A    between atoms: _333  and  _335
REMARK  132  A    between atoms: _335  and  _336
REMARK  133  A    between atoms: _338  and  _340
REMARK  134  A    between atoms: _340  and  _341
REMARK  135  A    between atoms: _340  and  _343
REMARK  136  A    between atoms: _346  and  _348
REMARK  137  A    between atoms: _348  and  _349
REMARK  138  A    between atoms: _352  and  _354
REMARK  139  A    between atoms: _354  and  _355
REMARK  140  A    between atoms: _354  and  _357
REMARK  141  A    between atoms: _357  and  _358
REMARK  142  A    between atoms: _363  and  _365
REMARK  143  A    between atoms: _365  and  _366
REMARK  144  A    between atoms: _365  and  _368
REMARK  145  A    between atoms: _368  and  _369
REMARK  146  A    between atoms: _369  and  _370
REMARK  147  A    between atoms: _370  and  _371
REMARK  148  A    between atoms: _371  and  _372
REMARK  149  A    between atoms: _376  and  _378
REMARK  150  A    between atoms: _378  and  _379
REMARK  151  A    between atoms: _378  and  _381
REMARK  152  A    between atoms: _381  and  _382
REMARK  153  A    between atoms: _385  and  _387
REMARK  154  A    between atoms: _387  and  _388
REMARK  155  A    between atoms: _387  and  _390
REMARK  156  A    between atoms: _390  and  _391
REMARK  157  A    between atoms: _396  and  _398
REMARK  158  A    between atoms: _398  and  _399
REMARK  159  A    between atoms: _401  and  _403
REMARK  160  A    between atoms: _403  and  _404
REMARK  161  A    between atoms: _403  and  _406
REMARK  162  A    between atoms: _406  and  _407
REMARK  163  A    between atoms: _407  and  _408
REMARK  164  A    between atoms: _408  and  _409
REMARK  165  A    between atoms: _409  and  _410
REMARK  166  A    between atoms: _414  and  _416
REMARK  167  A    between atoms: _416  and  _417
REMARK  168  A    between atoms: _416  and  _419
REMARK  169  A    between atoms: _419  and  _420
REMARK  170  A    between atoms: _420  and  _421
REMARK  171  A    between atoms: _421  and  _422
REMARK  172  A    between atoms: _431  and  _433
REMARK  173  A    between atoms: _433  and  _434
REMARK  174  A    between atoms: _433  and  _436
REMARK  175  A    between atoms: _436  and  _437
REMARK  176  A    between atoms: _442  and  _444
REMARK  177  A    between atoms: _444  and  _445
REMARK  178  A    between atoms: _444  and  _447
REMARK  179  A    between atoms: _447  and  _448
REMARK  180  A    between atoms: _453  and  _454
REMARK  181  A    between atoms: _456  and  _458
REMARK  182  A    between atoms: _458  and  _459
REMARK  183  A    between atoms: _458  and  _461
REMARK  184  A    between atoms: _461  and  _462
REMARK  185  A    between atoms: _462  and  _463
REMARK  186  A    between atoms: _463  and  _464
REMARK  187  A    between atoms: _464  and  _465
REMARK  188  A    between atoms: _469  and  _471
REMARK  189  A    between atoms: _471  and  _472
REMARK  190  A    between atoms: _471  and  _474
REMARK  191  A    between atoms: _474  and  _475
REMARK  192  A    between atoms: _477  and  _479
REMARK  193  A    between atoms: _479  and  _480
REMARK  194  A    between atoms: _479  and  _482
REMARK  195  A    between atoms: _482  and  _483
REMARK  196  A    between atoms: _486  and  _488
REMARK  197  A    between atoms: _488  and  _489
REMARK  198  A    between atoms: _488  and  _491
REMARK  199  A    between atoms: _491  and  _492
REMARK  200  A    between atoms: _492  and  _493
REMARK  201  A    between atoms: _496  and  _498
REMARK  202  A    between atoms: _498  and  _499
REMARK  203  A    between atoms: _502  and  _504
REMARK  204  A    between atoms: _504  and  _505
REMARK  205  A    between atoms: _504  and  _507
REMARK  206  A    between atoms: _507  and  _508
REMARK  207  A    between atoms: _510  and  _512
REMARK  208  A    between atoms: _512  and  _513
REMARK  209  A    between atoms: _515  and  _517
REMARK  210  A    between atoms: _517  and  _518
REMARK  211  A    between atoms: _517  and  _520
REMARK  212  A    between atoms: _520  and  _521
REMARK  213  A    between atoms: _524  and  _526
REMARK  214  A    between atoms: _526  and  _527
REMARK  215  A    between atoms: _529  and  _531
REMARK  216  A    between atoms: _531  and  _532
REMARK  217  A    between atoms: _531  and  _534
REMARK  218  A    between atoms: _534  and  _535
REMARK  219  A    between atoms: _540  and  _542
REMARK  220  A    between atoms: _542  and  _543
REMARK  221  A    between atoms: _542  and  _545
REMARK  222  A    between atoms: _545  and  _546
REMARK  223  A    between atoms: _546  and  _547
REMARK  224  A    between atoms: _554  and  _555
REMARK  225  A    between atoms: _555  and  _571
REMARK  226  A    between atoms: _556  and  _558
REMARK  227  A    between atoms: _558  and  _559
REMARK  228  A    between atoms: _559  and  _560
REMARK  229  A    between atoms: _564  and  _566
REMARK  230  A    between atoms: _566  and  _567
REMARK  231  A    between atoms: _566  and  _574
REMARK  232  A    between atoms: _567  and  _568
REMARK  233  A    between atoms: _568  and  _569
REMARK  234  A    between atoms: _569  and  _570
REMARK  235  A    between atoms: _570  and  _571
REMARK  236  A    between atoms: _576  and  _578
REMARK  237  A    between atoms: _578  and  _579
REMARK  238  A    between atoms: _578  and  _581
REMARK  239  A    between atoms: _581  and  _582
REMARK  240  A    between atoms: _585  and  _587
REMARK  241  A    between atoms: _587  and  _588
REMARK  242  A    between atoms: _590  and  _592
REMARK  243  A    between atoms: _592  and  _593
REMARK  244  A    between atoms: _596  and  _598
REMARK  245  A    between atoms: _598  and  _599
REMARK  246  A    between atoms: _598  and  _601
REMARK  247  A    between atoms: _601  and  _602
REMARK  248  A    between atoms: _607  and  _608
REMARK                            x       y       z     vdW  Elec       q    Type
REMARK                         _______ _______ _______ _____ _____    ______ ____
ROOT
ATOM      1  O   HOH     1      28.212  27.286  27.707  0.00  0.00    +0.000 OA
ENDROOT
TORSDOF 0
REMARK  Name = ../refined-set-2016/3g2n/3g2n_pocket.pdb
REMARK  248 active torsions:
REMARK  status: ('A' for Active; 'I' for Inactive)
REMARK    1  A    between atoms: _1  and  _3
REMARK    2  A    between atoms: _3  and  _4
REMARK    3  A    between atoms: _3  and  _6
REMARK    4  A    between atoms: _6  and  _7
REMARK    5  A    between atoms: _12  and  _13
REMARK    6  A    between atoms: _15  and  _17
REMARK    7  A    between atoms: _17  and  _18
REMARK    8  A    between atoms: _17  and  _20
REMARK    9  A    between atoms: _20  and  _21
REMARK   10  A    between atoms: _21  and  _22
REMARK   11  A    between atoms: _25  and  _27
REMARK   12  A    between atoms: _27  and  _28
REMARK   13  A    between atoms: _27  and  _30
REMARK   14  A    between atoms: _30  and  _31
REMARK   15  A    between atoms: _36  and  _38
REMARK   16  A    between atoms: _38  and  _39
REMARK   17  A    between atoms: _41  and  _43
REMARK   18  A    between atoms: _43  and  _44
REMARK   19  A    between atoms: _46  and  _48
REMARK   20  A    between atoms: _48  and  _49
REMARK   21  A    between atoms: _48  and  _51
REMARK   22  A    between atoms: _51  and  _52
REMARK   23  A    between atoms: _55  and  _57
REMARK   24  A    between atoms: _57  and  _58
REMARK   25  A    between atoms: _60  and  _62
REMARK   26  A    between atoms: _62  and  _63
REMARK   27  A    between atoms: _62  and  _65
REMARK   28  A    between atoms: _65  and  _66
REMARK   29  A    between atoms: _66  and  _67
REMARK   30  A    between atoms: _67  and  _68
REMARK   31  A    between atoms: _77  and  _79
REMARK   32  A    between atoms: _79  and  _80
REMARK   33  A    between atoms: _79  and  _82
REMARK   34  A    between atoms: _82  and  _83
REMARK   35  A    between atoms: _86  and  _88
REMARK   36  A    between atoms: _88  and  _89
REMARK   37  A    between atoms: _92  and  _94
REMARK   38  A    between atoms: _94  and  _95
REMARK   39  A    between atoms: _94  and  _97
REMARK   40  A    between atoms: _97  and  _98
REMARK   41  A    between atoms: _104  and  _106
REMARK   42  A    between atoms: _106  and  _107
REMARK   43  A    between atoms: _106  and  _109
REMARK   44  A    between atoms: _109  and  _110
REMARK   45  A    between atoms: _115  and  _117
REMARK   46  A    between atoms: _117  and  _118
REMARK   47  A    between atoms: _117  and  _120
REMARK   48  A    between atoms: _120  and  _121
REMARK   49  A    between atoms: _124  and  _126
REMARK   50  A    between atoms: _126  and  _127
REMARK   51  A    between atoms: _126  and  _129
REMARK   52  A    between atoms: _129  and  _130
REMARK   53  A    between atoms: _135  and  _137
REMARK   54  A    between atoms: _137  and  _138
REMARK   55  A    between atoms: _137  and  _140
REMARK   56  A    between atoms: _140  and  _141
REMARK   57  A    between atoms: _147  and  _149
REMARK   58  A    between atoms: _149  and  _150
REMARK   59  A    between atoms: _149  and  _152
REMARK   60  A    between atoms: _152  and  _153
REMARK   61  A    between atoms: _159  and  _161
REMARK   62  A    between atoms: _161  and  _162
REMARK   63  A    between atoms: _161  and  _164
REMARK   64  A    between atoms: _164  and  _165
REMARK   65  A    between atoms: _165  and  _166
REMARK   66  A    between atoms: _166  and  _167
REMARK   67  A    between atoms: _176  and  _178
REMARK   68  A    between atoms: _178  and  _179
REMARK   69  A    between atoms: _178  and  _181
REMARK   70  A    between atoms: _181  and  _182
REMARK   71  A    between atoms: _187  and  _189
REMARK   72  A    between atoms: _189  and  _190
REMARK   73  A    between atoms: _189  and  _192
REMARK   74  A    between atoms: _192  and  _193
REMARK   75  A    between atoms: _196  and  _198
REMARK   76  A    between atoms: _198  and  _199
REMARK   77  A    between atoms: _198  and  _201
REMARK   78  A    between atoms: _201  and  _202
REMARK   79  A    between atoms: _205  and  _207
REMARK   80  A    between atoms: _207  and  _208
REMARK   81  A    between atoms: _207  and  _210
REMARK   82  A    between atoms: _210  and  _211
REMARK   83  A    between atoms: _216  and  _218
REMARK   84  A    between atoms: _218  and  _219
REMARK   85  A    between atoms: _218  and  _221
REMARK   86  A    between atoms: _221  and  _222
REMARK   87  A    between atoms: _227  and  _228
REMARK   88  A    between atoms: _230  and  _232
REMARK   89  A    between atoms: _232  and  _233
REMARK   90  A    between atoms: _232  and  _235
REMARK   91  A    between atoms: _235  and  _236
REMARK   92  A    between atoms: _239  and  _241
REMARK   93  A    between atoms: _241  and  _242
REMARK   94  A    between atoms: _241  and  _244
REMARK   95  A    between atoms: _244  and  _245
REMARK   96  A    between atoms: _250  and  _252
REMARK   97  A    between atoms: _252  and  _253
REMARK   98  A    between atoms: _252  and  _255
REMARK   99  A    between atoms: _255  and  _256
REMARK  100  A    between atoms: _261  and  _263
REMARK  101  A    between atoms: _263  and  _264
REMARK  102  A    between atoms: _263  and  _266
REMARK  103  A    between atoms: _266  and  _267
REMARK  104  A    between atoms: _270  and  _272
REMARK  105  A    between atoms: _272  and  _273
REMARK  106  A    between atoms: _272  and  _275
REMARK  107  A    between atoms: _278  and  _280
REMARK  108  A    between atoms: _280  and  _281
REMARK  109  A    between atoms: _280  and  _283
REMARK  110  A    between atoms: _283  and  _284
REMARK  111  A    between atoms: _287  and  _289
REMARK  112  A    between atoms: _289  and  _290
REMARK  113  A    between atoms: _289  and  _292
REMARK  114  A    between atoms: _292  and  _293
REMARK  115  A    between atoms: _293  and  _294
REMARK  116  A    between atoms: _297  and  _299
REMARK  117  A    between atoms: _299  and  _300
REMARK  118  A    between atoms: _303  and  _305
REMARK  119  A    between atoms: _305  and  _306
REMARK  120  A    between atoms: _305  and  _308
REMARK  121  A    between atoms: _308  and  _309
REMARK  122  A    between atoms: _312  and  _314
REMARK  123  A    between atoms: _314  and  _315
REMARK  124  A    between atoms: _314  and  _317
REMARK  125  A    between atoms: _317  and  _318
REMARK  126  A    between atoms: _318  and  _319
REMARK  127  A    between atoms: _322  and  _324
REMARK  128  A    between atoms: _324  and  _325
REMARK  129  A    between atoms: _324  and  _327
REMARK  130  A    between atoms: _327  and  _328
REMARK  131  A    between atoms: _333  and  _335
REMARK  132  A    between atoms: _335  and  _336
REMARK  133  A    between atoms: _338  and  _340
REMARK  134  A    between atoms: _340  and  _341
REMARK  135  A    between atoms: _340  and  _343
REMARK  136  A    between atoms: _346  and  _348
REMARK  137  A    between atoms: _348  and  _349
REMARK  138  A    between atoms: _352  and  _354
REMARK  139  A    between atoms: _354  and  _355
REMARK  140  A    between atoms: _354  and  _357
REMARK  141  A    between atoms: _357  and  _358
REMARK  142  A    between atoms: _363  and  _365
REMARK  143  A    between atoms: _365  and  _366
REMARK  144  A    between atoms: _365  and  _368
REMARK  145  A    between atoms: _368  and  _369
REMARK  146  A    between atoms: _369  and  _370
REMARK  147  A    between atoms: _370  and  _371
REMARK  148  A    between atoms: _371  and  _372
REMARK  149  A    between atoms: _376  and  _378
REMARK  150  A    between atoms: _378  and  _379
REMARK  151  A    between atoms: _378  and  _381
REMARK  152  A    between atoms: _381  and  _382
REMARK  153  A    between atoms: _385  and  _387
REMARK  154  A    between atoms: _387  and  _388
REMARK  155  A    between atoms: _387  and  _390
REMARK  156  A    between atoms: _390  and  _391
REMARK  157  A    between atoms: _396  and  _398
REMARK  158  A    between atoms: _398  and  _399
REMARK  159  A    between atoms: _401  and  _403
REMARK  160  A    between atoms: _403  and  _404
REMARK  161  A    between atoms: _403  and  _406
REMARK  162  A    between atoms: _406  and  _407
REMARK  163  A    between atoms: _407  and  _408
REMARK  164  A    between atoms: _408  and  _409
REMARK  165  A    between atoms: _409  and  _410
REMARK  166  A    between atoms: _414  and  _416
REMARK  167  A    between atoms: _416  and  _417
REMARK  168  A    between atoms: _416  and  _419
REMARK  169  A    between atoms: _419  and  _420
REMARK  170  A    between atoms: _420  and  _421
REMARK  171  A    between atoms: _421  and  _422
REMARK  172  A    between atoms: _431  and  _433
REMARK  173  A    between atoms: _433  and  _434
REMARK  174  A    between atoms: _433  and  _436
REMARK  175  A    between atoms: _436  and  _437
REMARK  176  A    between atoms: _442  and  _444
REMARK  177  A    between atoms: _444  and  _445
REMARK  178  A    between atoms: _444  and  _447
REMARK  179  A    between atoms: _447  and  _448
REMARK  180  A    between atoms: _453  and  _454
REMARK  181  A    between atoms: _456  and  _458
REMARK  182  A    between atoms: _458  and  _459
REMARK  183  A    between atoms: _458  and  _461
REMARK  184  A    between atoms: _461  and  _462
REMARK  185  A    between atoms: _462  and  _463
REMARK  186  A    between atoms: _463  and  _464
REMARK  187  A    between atoms: _464  and  _465
REMARK  188  A    between atoms: _469  and  _471
REMARK  189  A    between atoms: _471  and  _472
REMARK  190  A    between atoms: _471  and  _474
REMARK  191  A    between atoms: _474  and  _475
REMARK  192  A    between atoms: _477  and  _479
REMARK  193  A    between atoms: _479  and  _480
REMARK  194  A    between atoms: _479  and  _482
REMARK  195  A    between atoms: _482  and  _483
REMARK  196  A    between atoms: _486  and  _488
REMARK  197  A    between atoms: _488  and  _489
REMARK  198  A    between atoms: _488  and  _491
REMARK  199  A    between atoms: _491  and  _492
REMARK  200  A    between atoms: _492  and  _493
REMARK  201  A    between atoms: _496  and  _498
REMARK  202  A    between atoms: _498  and  _499
REMARK  203  A    between atoms: _502  and  _504
REMARK  204  A    between atoms: _504  and  _505
REMARK  205  A    between atoms: _504  and  _507
REMARK  206  A    between atoms: _507  and  _508
REMARK  207  A    between atoms: _510  and  _512
REMARK  208  A    between atoms: _512  and  _513
REMARK  209  A    between atoms: _515  and  _517
REMARK  210  A    between atoms: _517  and  _518
REMARK  211  A    between atoms: _517  and  _520
REMARK  212  A    between atoms: _520  and  _521
REMARK  213  A    between atoms: _524  and  _526
REMARK  214  A    between atoms: _526  and  _527
REMARK  215  A    between atoms: _529  and  _531
REMARK  216  A    between atoms: _531  and  _532
REMARK  217  A    between atoms: _531  and  _534
REMARK  218  A    between atoms: _534  and  _535
REMARK  219  A    between atoms: _540  and  _542
REMARK  220  A    between atoms: _542  and  _543
REMARK  221  A    between atoms: _542  and  _545
REMARK  222  A    between atoms: _545  and  _546
REMARK  223  A    between atoms: _546  and  _547
REMARK  224  A    between atoms: _554  and  _555
REMARK  225  A    between atoms: _555  and  _571
REMARK  226  A    between atoms: _556  and  _558
REMARK  227  A    between atoms: _558  and  _559
REMARK  228  A    between atoms: _559  and  _560
REMARK  229  A    between atoms: _564  and  _566
REMARK  230  A    between atoms: _566  and  _567
REMARK  231  A    between atoms: _566  and  _574
REMARK  232  A    between atoms: _567  and  _568
REMARK  233  A    between atoms: _568  and  _569
REMARK  234  A    between atoms: _569  and  _570
REMARK  235  A    between atoms: _570  and  _571
REMARK  236  A    between atoms: _576  and  _578
REMARK  237  A    between atoms: _578  and  _579
REMARK  238  A    between atoms: _578  and  _581
REMARK  239  A    between atoms: _581  and  _582
REMARK  240  A    between atoms: _585  and  _587
REMARK  241  A    between atoms: _587  and  _588
REMARK  242  A    between atoms: _590  and  _592
REMARK  243  A    between atoms: _592  and  _593
REMARK  244  A    between atoms: _596  and  _598
REMARK  245  A    between atoms: _598  and  _599
REMARK  246  A    between atoms: _598  and  _601
REMARK  247  A    between atoms: _601  and  _602
REMARK  248  A    between atoms: _607  and  _608
REMARK                            x       y       z     vdW  Elec       q    Type
REMARK                         _______ _______ _______ _____ _____    ______ ____
ROOT
ATOM      1  O   HOH     1      27.019  23.466  21.734  0.00  0.00    +0.000 OA
ENDROOT
TORSDOF 0
REMARK  Name = ../refined-set-2016/3g2n/3g2n_pocket.pdb
REMARK  248 active torsions:
REMARK  status: ('A' for Active; 'I' for Inactive)
REMARK    1  A    between atoms: _1  and  _3
REMARK    2  A    between atoms: _3  and  _4
REMARK    3  A    between atoms: _3  and  _6
REMARK    4  A    between atoms: _6  and  _7
REMARK    5  A    between atoms: _12  and  _13
REMARK    6  A    between atoms: _15  and  _17
REMARK    7  A    between atoms: _17  and  _18
REMARK    8  A    between atoms: _17  and  _20
REMARK    9  A    between atoms: _20  and  _21
REMARK   10  A    between atoms: _21  and  _22
REMARK   11  A    between atoms: _25  and  _27
REMARK   12  A    between atoms: _27  and  _28
REMARK   13  A    between atoms: _27  and  _30
REMARK   14  A    between atoms: _30  and  _31
REMARK   15  A    between atoms: _36  and  _38
REMARK   16  A    between atoms: _38  and  _39
REMARK   17  A    between atoms: _41  and  _43
REMARK   18  A    between atoms: _43  and  _44
REMARK   19  A    between atoms: _46  and  _48
REMARK   20  A    between atoms: _48  and  _49
REMARK   21  A    between atoms: _48  and  _51
REMARK   22  A    between atoms: _51  and  _52
REMARK   23  A    between atoms: _55  and  _57
REMARK   24  A    between atoms: _57  and  _58
REMARK   25  A    between atoms: _60  and  _62
REMARK   26  A    between atoms: _62  and  _63
REMARK   27  A    between atoms: _62  and  _65
REMARK   28  A    between atoms: _65  and  _66
REMARK   29  A    between atoms: _66  and  _67
REMARK   30  A    between atoms: _67  and  _68
REMARK   31  A    between atoms: _77  and  _79
REMARK   32  A    between atoms: _79  and  _80
REMARK   33  A    between atoms: _79  and  _82
REMARK   34  A    between atoms: _82  and  _83
REMARK   35  A    between atoms: _86  and  _88
REMARK   36  A    between atoms: _88  and  _89
REMARK   37  A    between atoms: _92  and  _94
REMARK   38  A    between atoms: _94  and  _95
REMARK   39  A    between atoms: _94  and  _97
REMARK   40  A    between atoms: _97  and  _98
REMARK   41  A    between atoms: _104  and  _106
REMARK   42  A    between atoms: _106  and  _107
REMARK   43  A    between atoms: _106  and  _109
REMARK   44  A    between atoms: _109  and  _110
REMARK   45  A    between atoms: _115  and  _117
REMARK   46  A    between atoms: _117  and  _118
REMARK   47  A    between atoms: _117  and  _120
REMARK   48  A    between atoms: _120  and  _121
REMARK   49  A    between atoms: _124  and  _126
REMARK   50  A    between atoms: _126  and  _127
REMARK   51  A    between atoms: _126  and  _129
REMARK   52  A    between atoms: _129  and  _130
REMARK   53  A    between atoms: _135  and  _137
REMARK   54  A    between atoms: _137  and  _138
REMARK   55  A    between atoms: _137  and  _140
REMARK   56  A    between atoms: _140  and  _141
REMARK   57  A    between atoms: _147  and  _149
REMARK   58  A    between atoms: _149  and  _150
REMARK   59  A    between atoms: _149  and  _152
REMARK   60  A    between atoms: _152  and  _153
REMARK   61  A    between atoms: _159  and  _161
REMARK   62  A    between atoms: _161  and  _162
REMARK   63  A    between atoms: _161  and  _164
REMARK   64  A    between atoms: _164  and  _165
REMARK   65  A    between atoms: _165  and  _166
REMARK   66  A    between atoms: _166  and  _167
REMARK   67  A    between atoms: _176  and  _178
REMARK   68  A    between atoms: _178  and  _179
REMARK   69  A    between atoms: _178  and  _181
REMARK   70  A    between atoms: _181  and  _182
REMARK   71  A    between atoms: _187  and  _189
REMARK   72  A    between atoms: _189  and  _190
REMARK   73  A    between atoms: _189  and  _192
REMARK   74  A    between atoms: _192  and  _193
REMARK   75  A    between atoms: _196  and  _198
REMARK   76  A    between atoms: _198  and  _199
REMARK   77  A    between atoms: _198  and  _201
REMARK   78  A    between atoms: _201  and  _202
REMARK   79  A    between atoms: _205  and  _207
REMARK   80  A    between atoms: _207  and  _208
REMARK   81  A    between atoms: _207  and  _210
REMARK   82  A    between atoms: _210  and  _211
REMARK   83  A    between atoms: _216  and  _218
REMARK   84  A    between atoms: _218  and  _219
REMARK   85  A    between atoms: _218  and  _221
REMARK   86  A    between atoms: _221  and  _222
REMARK   87  A    between atoms: _227  and  _228
REMARK   88  A    between atoms: _230  and  _232
REMARK   89  A    between atoms: _232  and  _233
REMARK   90  A    between atoms: _232  and  _235
REMARK   91  A    between atoms: _235  and  _236
REMARK   92  A    between atoms: _239  and  _241
REMARK   93  A    between atoms: _241  and  _242
REMARK   94  A    between atoms: _241  and  _244
REMARK   95  A    between atoms: _244  and  _245
REMARK   96  A    between atoms: _250  and  _252
REMARK   97  A    between atoms: _252  and  _253
REMARK   98  A    between atoms: _252  and  _255
REMARK   99  A    between atoms: _255  and  _256
REMARK  100  A    between atoms: _261  and  _263
REMARK  101  A    between atoms: _263  and  _264
REMARK  102  A    between atoms: _263  and  _266
REMARK  103  A    between atoms: _266  and  _267
REMARK  104  A    between atoms: _270  and  _272
REMARK  105  A    between atoms: _272  and  _273
REMARK  106  A    between atoms: _272  and  _275
REMARK  107  A    between atoms: _278  and  _280
REMARK  108  A    between atoms: _280  and  _281
REMARK  109  A    between atoms: _280  and  _283
REMARK  110  A    between atoms: _283  and  _284
REMARK  111  A    between atoms: _287  and  _289
REMARK  112  A    between atoms: _289  and  _290
REMARK  113  A    between atoms: _289  and  _292
REMARK  114  A    between atoms: _292  and  _293
REMARK  115  A    between atoms: _293  and  _294
REMARK  116  A    between atoms: _297  and  _299
REMARK  117  A    between atoms: _299  and  _300
REMARK  118  A    between atoms: _303  and  _305
REMARK  119  A    between atoms: _305  and  _306
REMARK  120  A    between atoms: _305  and  _308
REMARK  121  A    between atoms: _308  and  _309
REMARK  122  A    between atoms: _312  and  _314
REMARK  123  A    between atoms: _314  and  _315
REMARK  124  A    between atoms: _314  and  _317
REMARK  125  A    between atoms: _317  and  _318
REMARK  126  A    between atoms: _318  and  _319
REMARK  127  A    between atoms: _322  and  _324
REMARK  128  A    between atoms: _324  and  _325
REMARK  129  A    between atoms: _324  and  _327
REMARK  130  A    between atoms: _327  and  _328
REMARK  131  A    between atoms: _333  and  _335
REMARK  132  A    between atoms: _335  and  _336
REMARK  133  A    between atoms: _338  and  _340
REMARK  134  A    between atoms: _340  and  _341
REMARK  135  A    between atoms: _340  and  _343
REMARK  136  A    between atoms: _346  and  _348
REMARK  137  A    between atoms: _348  and  _349
REMARK  138  A    between atoms: _352  and  _354
REMARK  139  A    between atoms: _354  and  _355
REMARK  140  A    between atoms: _354  and  _357
REMARK  141  A    between atoms: _357  and  _358
REMARK  142  A    between atoms: _363  and  _365
REMARK  143  A    between atoms: _365  and  _366
REMARK  144  A    between atoms: _365  and  _368
REMARK  145  A    between atoms: _368  and  _369
REMARK  146  A    between atoms: _369  and  _370
REMARK  147  A    between atoms: _370  and  _371
REMARK  148  A    between atoms: _371  and  _372
REMARK  149  A    between atoms: _376  and  _378
REMARK  150  A    between atoms: _378  and  _379
REMARK  151  A    between atoms: _378  and  _381
REMARK  152  A    between atoms: _381  and  _382
REMARK  153  A    between atoms: _385  and  _387
REMARK  154  A    between atoms: _387  and  _388
REMARK  155  A    between atoms: _387  and  _390
REMARK  156  A    between atoms: _390  and  _391
REMARK  157  A    between atoms: _396  and  _398
REMARK  158  A    between atoms: _398  and  _399
REMARK  159  A    between atoms: _401  and  _403
REMARK  160  A    between atoms: _403  and  _404
REMARK  161  A    between atoms: _403  and  _406
REMARK  162  A    between atoms: _406  and  _407
REMARK  163  A    between atoms: _407  and  _408
REMARK  164  A    between atoms: _408  and  _409
REMARK  165  A    between atoms: _409  and  _410
REMARK  166  A    between atoms: _414  and  _416
REMARK  167  A    between atoms: _416  and  _417
REMARK  168  A    between atoms: _416  and  _419
REMARK  169  A    between atoms: _419  and  _420
REMARK  170  A    between atoms: _420  and  _421
REMARK  171  A    between atoms: _421  and  _422
REMARK  172  A    between atoms: _431  and  _433
REMARK  173  A    between atoms: _433  and  _434
REMARK  174  A    between atoms: _433  and  _436
REMARK  175  A    between atoms: _436  and  _437
REMARK  176  A    between atoms: _442  and  _444
REMARK  177  A    between atoms: _444  and  _445
REMARK  178  A    between atoms: _444  and  _447
REMARK  179  A    between atoms: _447  and  _448
REMARK  180  A    between atoms: _453  and  _454
REMARK  181  A    between atoms: _456  and  _458
REMARK  182  A    between atoms: _458  and  _459
REMARK  183  A    between atoms: _458  and  _461
REMARK  184  A    between atoms: _461  and  _462
REMARK  185  A    between atoms: _462  and  _463
REMARK  186  A    between atoms: _463  and  _464
REMARK  187  A    between atoms: _464  and  _465
REMARK  188  A    between atoms: _469  and  _471
REMARK  189  A    between atoms: _471  and  _472
REMARK  190  A    between atoms: _471  and  _474
REMARK  191  A    between atoms: _474  and  _475
REMARK  192  A    between atoms: _477  and  _479
REMARK  193  A    between atoms: _479  and  _480
REMARK  194  A    between atoms: _479  and  _482
REMARK  195  A    between atoms: _482  and  _483
REMARK  196  A    between atoms: _486  and  _488
REMARK  197  A    between atoms: _488  and  _489
REMARK  198  A    between atoms: _488  and  _491
REMARK  199  A    between atoms: _491  and  _492
REMARK  200  A    between atoms: _492  and  _493
REMARK  201  A    between atoms: _496  and  _498
REMARK  202  A    between atoms: _498  and  _499
REMARK  203  A    between atoms: _502  and  _504
REMARK  204  A    between atoms: _504  and  _505
REMARK  205  A    between atoms: _504  and  _507
REMARK  206  A    between atoms: _507  and  _508
REMARK  207  A    between atoms: _510  and  _512
REMARK  208  A    between atoms: _512  and  _513
REMARK  209  A    between atoms: _515  and  _517
REMARK  210  A    between atoms: _517  and  _518
REMARK  211  A    between atoms: _517  and  _520
REMARK  212  A    between atoms: _520  and  _521
REMARK  213  A    between atoms: _524  and  _526
REMARK  214  A    between atoms: _526  and  _527
REMARK  215  A    between atoms: _529  and  _531
REMARK  216  A    between atoms: _531  and  _532
REMARK  217  A    between atoms: _531  and  _534
REMARK  218  A    between atoms: _534  and  _535
REMARK  219  A    between atoms: _540  and  _542
REMARK  220  A    between atoms: _542  and  _543
REMARK  221  A    between atoms: _542  and  _545
REMARK  222  A    between atoms: _545  and  _546
REMARK  223  A    between atoms: _546  and  _547
REMARK  224  A    between atoms: _554  and  _555
REMARK  225  A    between atoms: _555  and  _571
REMARK  226  A    between atoms: _556  and  _558
REMARK  227  A    between atoms: _558  and  _559
REMARK  228  A    between atoms: _559  and  _560
REMARK  229  A    between atoms: _564  and  _566
REMARK  230  A    between atoms: _566  and  _567
REMARK  231  A    between atoms: _566  and  _574
REMARK  232  A    between atoms: _567  and  _568
REMARK  233  A    between atoms: _568  and  _569
REMARK  234  A    between atoms: _569  and  _570
REMARK  235  A    between atoms: _570  and  _571
REMARK  236  A    between atoms: _576  and  _578
REMARK  237  A    between atoms: _578  and  _579
REMARK  238  A    between atoms: _578  and  _581
REMARK  239  A    between atoms: _581  and  _582
REMARK  240  A    between atoms: _585  and  _587
REMARK  241  A    between atoms: _587  and  _588
REMARK  242  A    between atoms: _590  and  _592
REMARK  243  A    between atoms: _592  and  _593
REMARK  244  A    between atoms: _596  and  _598
REMARK  245  A    between atoms: _598  and  _599
REMARK  246  A    between atoms: _598  and  _601
REMARK  247  A    between atoms: _601  and  _602
REMARK  248  A    between atoms: _607  and  _608
REMARK                            x       y       z     vdW  Elec       q    Type
REMARK                         _______ _______ _______ _____ _____    ______ ____
ROOT
ATOM      1  O   HOH     1      35.554  12.694  30.930  0.00  0.00    +0.000 OA
ENDROOT
TORSDOF 0
REMARK  Name = ../refined-set-2016/3g2n/3g2n_pocket.pdb
REMARK  248 active torsions:
REMARK  status: ('A' for Active; 'I' for Inactive)
REMARK    1  A    between atoms: _1  and  _3
REMARK    2  A    between atoms: _3  and  _4
REMARK    3  A    between atoms: _3  and  _6
REMARK    4  A    between atoms: _6  and  _7
REMARK    5  A    between atoms: _12  and  _13
REMARK    6  A    between atoms: _15  and  _17
REMARK    7  A    between atoms: _17  and  _18
REMARK    8  A    between atoms: _17  and  _20
REMARK    9  A    between atoms: _20  and  _21
REMARK   10  A    between atoms: _21  and  _22
REMARK   11  A    between atoms: _25  and  _27
REMARK   12  A    between atoms: _27  and  _28
REMARK   13  A    between atoms: _27  and  _30
REMARK   14  A    between atoms: _30  and  _31
REMARK   15  A    between atoms: _36  and  _38
REMARK   16  A    between atoms: _38  and  _39
REMARK   17  A    between atoms: _41  and  _43
REMARK   18  A    between atoms: _43  and  _44
REMARK   19  A    between atoms: _46  and  _48
REMARK   20  A    between atoms: _48  and  _49
REMARK   21  A    between atoms: _48  and  _51
REMARK   22  A    between atoms: _51  and  _52
REMARK   23  A    between atoms: _55  and  _57
REMARK   24  A    between atoms: _57  and  _58
REMARK   25  A    between atoms: _60  and  _62
REMARK   26  A    between atoms: _62  and  _63
REMARK   27  A    between atoms: _62  and  _65
REMARK   28  A    between atoms: _65  and  _66
REMARK   29  A    between atoms: _66  and  _67
REMARK   30  A    between atoms: _67  and  _68
REMARK   31  A    between atoms: _77  and  _79
REMARK   32  A    between atoms: _79  and  _80
REMARK   33  A    between atoms: _79  and  _82
REMARK   34  A    between atoms: _82  and  _83
REMARK   35  A    between atoms: _86  and  _88
REMARK   36  A    between atoms: _88  and  _89
REMARK   37  A    between atoms: _92  and  _94
REMARK   38  A    between atoms: _94  and  _95
REMARK   39  A    between atoms: _94  and  _97
REMARK   40  A    between atoms: _97  and  _98
REMARK   41  A    between atoms: _104  and  _106
REMARK   42  A    between atoms: _106  and  _107
REMARK   43  A    between atoms: _106  and  _109
REMARK   44  A    between atoms: _109  and  _110
REMARK   45  A    between atoms: _115  and  _117
REMARK   46  A    between atoms: _117  and  _118
REMARK   47  A    between atoms: _117  and  _120
REMARK   48  A    between atoms: _120  and  _121
REMARK   49  A    between atoms: _124  and  _126
REMARK   50  A    between atoms: _126  and  _127
REMARK   51  A    between atoms: _126  and  _129
REMARK   52  A    between atoms: _129  and  _130
REMARK   53  A    between atoms: _135  and  _137
REMARK   54  A    between atoms: _137  and  _138
REMARK   55  A    between atoms: _137  and  _140
REMARK   56  A    between atoms: _140  and  _141
REMARK   57  A    between atoms: _147  and  _149
REMARK   58  A    between atoms: _149  and  _150
REMARK   59  A    between atoms: _149  and  _152
REMARK   60  A    between atoms: _152  and  _153
REMARK   61  A    between atoms: _159  and  _161
REMARK   62  A    between atoms: _161  and  _162
REMARK   63  A    between atoms: _161  and  _164
REMARK   64  A    between atoms: _164  and  _165
REMARK   65  A    between atoms: _165  and  _166
REMARK   66  A    between atoms: _166  and  _167
REMARK   67  A    between atoms: _176  and  _178
REMARK   68  A    between atoms: _178  and  _179
REMARK   69  A    between atoms: _178  and  _181
REMARK   70  A    between atoms: _181  and  _182
REMARK   71  A    between atoms: _187  and  _189
REMARK   72  A    between atoms: _189  and  _190
REMARK   73  A    between atoms: _189  and  _192
REMARK   74  A    between atoms: _192  and  _193
REMARK   75  A    between atoms: _196  and  _198
REMARK   76  A    between atoms: _198  and  _199
REMARK   77  A    between atoms: _198  and  _201
REMARK   78  A    between atoms: _201  and  _202
REMARK   79  A    between atoms: _205  and  _207
REMARK   80  A    between atoms: _207  and  _208
REMARK   81  A    between atoms: _207  and  _210
REMARK   82  A    between atoms: _210  and  _211
REMARK   83  A    between atoms: _216  and  _218
REMARK   84  A    between atoms: _218  and  _219
REMARK   85  A    between atoms: _218  and  _221
REMARK   86  A    between atoms: _221  and  _222
REMARK   87  A    between atoms: _227  and  _228
REMARK   88  A    between atoms: _230  and  _232
REMARK   89  A    between atoms: _232  and  _233
REMARK   90  A    between atoms: _232  and  _235
REMARK   91  A    between atoms: _235  and  _236
REMARK   92  A    between atoms: _239  and  _241
REMARK   93  A    between atoms: _241  and  _242
REMARK   94  A    between atoms: _241  and  _244
REMARK   95  A    between atoms: _244  and  _245
REMARK   96  A    between atoms: _250  and  _252
REMARK   97  A    between atoms: _252  and  _253
REMARK   98  A    between atoms: _252  and  _255
REMARK   99  A    between atoms: _255  and  _256
REMARK  100  A    between atoms: _261  and  _263
REMARK  101  A    between atoms: _263  and  _264
REMARK  102  A    between atoms: _263  and  _266
REMARK  103  A    between atoms: _266  and  _267
REMARK  104  A    between atoms: _270  and  _272
REMARK  105  A    between atoms: _272  and  _273
REMARK  106  A    between atoms: _272  and  _275
REMARK  107  A    between atoms: _278  and  _280
REMARK  108  A    between atoms: _280  and  _281
REMARK  109  A    between atoms: _280  and  _283
REMARK  110  A    between atoms: _283  and  _284
REMARK  111  A    between atoms: _287  and  _289
REMARK  112  A    between atoms: _289  and  _290
REMARK  113  A    between atoms: _289  and  _292
REMARK  114  A    between atoms: _292  and  _293
REMARK  115  A    between atoms: _293  and  _294
REMARK  116  A    between atoms: _297  and  _299
REMARK  117  A    between atoms: _299  and  _300
REMARK  118  A    between atoms: _303  and  _305
REMARK  119  A    between atoms: _305  and  _306
REMARK  120  A    between atoms: _305  and  _308
REMARK  121  A    between atoms: _308  and  _309
REMARK  122  A    between atoms: _312  and  _314
REMARK  123  A    between atoms: _314  and  _315
REMARK  124  A    between atoms: _314  and  _317
REMARK  125  A    between atoms: _317  and  _318
REMARK  126  A    between atoms: _318  and  _319
REMARK  127  A    between atoms: _322  and  _324
REMARK  128  A    between atoms: _324  and  _325
REMARK  129  A    between atoms: _324  and  _327
REMARK  130  A    between atoms: _327  and  _328
REMARK  131  A    between atoms: _333  and  _335
REMARK  132  A    between atoms: _335  and  _336
REMARK  133  A    between atoms: _338  and  _340
REMARK  134  A    between atoms: _340  and  _341
REMARK  135  A    between atoms: _340  and  _343
REMARK  136  A    between atoms: _346  and  _348
REMARK  137  A    between atoms: _348  and  _349
REMARK  138  A    between atoms: _352  and  _354
REMARK  139  A    between atoms: _354  and  _355
REMARK  140  A    between atoms: _354  and  _357
REMARK  141  A    between atoms: _357  and  _358
REMARK  142  A    between atoms: _363  and  _365
REMARK  143  A    between atoms: _365  and  _366
REMARK  144  A    between atoms: _365  and  _368
REMARK  145  A    between atoms: _368  and  _369
REMARK  146  A    between atoms: _369  and  _370
REMARK  147  A    between atoms: _370  and  _371
REMARK  148  A    between atoms: _371  and  _372
REMARK  149  A    between atoms: _376  and  _378
REMARK  150  A    between atoms: _378  and  _379
REMARK  151  A    between atoms: _378  and  _381
REMARK  152  A    between atoms: _381  and  _382
REMARK  153  A    between atoms: _385  and  _387
REMARK  154  A    between atoms: _387  and  _388
REMARK  155  A    between atoms: _387  and  _390
REMARK  156  A    between atoms: _390  and  _391
REMARK  157  A    between atoms: _396  and  _398
REMARK  158  A    between atoms: _398  and  _399
REMARK  159  A    between atoms: _401  and  _403
REMARK  160  A    between atoms: _403  and  _404
REMARK  161  A    between atoms: _403  and  _406
REMARK  162  A    between atoms: _406  and  _407
REMARK  163  A    between atoms: _407  and  _408
REMARK  164  A    between atoms: _408  and  _409
REMARK  165  A    between atoms: _409  and  _410
REMARK  166  A    between atoms: _414  and  _416
REMARK  167  A    between atoms: _416  and  _417
REMARK  168  A    between atoms: _416  and  _419
REMARK  169  A    between atoms: _419  and  _420
REMARK  170  A    between atoms: _420  and  _421
REMARK  171  A    between atoms: _421  and  _422
REMARK  172  A    between atoms: _431  and  _433
REMARK  173  A    between atoms: _433  and  _434
REMARK  174  A    between atoms: _433  and  _436
REMARK  175  A    between atoms: _436  and  _437
REMARK  176  A    between atoms: _442  and  _444
REMARK  177  A    between atoms: _444  and  _445
REMARK  178  A    between atoms: _444  and  _447
REMARK  179  A    between atoms: _447  and  _448
REMARK  180  A    between atoms: _453  and  _454
REMARK  181  A    between atoms: _456  and  _458
REMARK  182  A    between atoms: _458  and  _459
REMARK  183  A    between atoms: _458  and  _461
REMARK  184  A    between atoms: _461  and  _462
REMARK  185  A    between atoms: _462  and  _463
REMARK  186  A    between atoms: _463  and  _464
REMARK  187  A    between atoms: _464  and  _465
REMARK  188  A    between atoms: _469  and  _471
REMARK  189  A    between atoms: _471  and  _472
REMARK  190  A    between atoms: _471  and  _474
REMARK  191  A    between atoms: _474  and  _475
REMARK  192  A    between atoms: _477  and  _479
REMARK  193  A    between atoms: _479  and  _480
REMARK  194  A    between atoms: _479  and  _482
REMARK  195  A    between atoms: _482  and  _483
REMARK  196  A    between atoms: _486  and  _488
REMARK  197  A    between atoms: _488  and  _489
REMARK  198  A    between atoms: _488  and  _491
REMARK  199  A    between atoms: _491  and  _492
REMARK  200  A    between atoms: _492  and  _493
REMARK  201  A    between atoms: _496  and  _498
REMARK  202  A    between atoms: _498  and  _499
REMARK  203  A    between atoms: _502  and  _504
REMARK  204  A    between atoms: _504  and  _505
REMARK  205  A    between atoms: _504  and  _507
REMARK  206  A    between atoms: _507  and  _508
REMARK  207  A    between atoms: _510  and  _512
REMARK  208  A    between atoms: _512  and  _513
REMARK  209  A    between atoms: _515  and  _517
REMARK  210  A    between atoms: _517  and  _518
REMARK  211  A    between atoms: _517  and  _520
REMARK  212  A    between atoms: _520  and  _521
REMARK  213  A    between atoms: _524  and  _526
REMARK  214  A    between atoms: _526  and  _527
REMARK  215  A    between atoms: _529  and  _531
REMARK  216  A    between atoms: _531  and  _532
REMARK  217  A    between atoms: _531  and  _534
REMARK  218  A    between atoms: _534  and  _535
REMARK  219  A    between atoms: _540  and  _542
REMARK  220  A    between atoms: _542  and  _543
REMARK  221  A    between atoms: _542  and  _545
REMARK  222  A    between atoms: _545  and  _546
REMARK  223  A    between atoms: _546  and  _547
REMARK  224  A    between atoms: _554  and  _555
REMARK  225  A    between atoms: _555  and  _571
REMARK  226  A    between atoms: _556  and  _558
REMARK  227  A    between atoms: _558  and  _559
REMARK  228  A    between atoms: _559  and  _560
REMARK  229  A    between atoms: _564  and  _566
REMARK  230  A    between atoms: _566  and  _567
REMARK  231  A    between atoms: _566  and  _574
REMARK  232  A    between atoms: _567  and  _568
REMARK  233  A    between atoms: _568  and  _569
REMARK  234  A    between atoms: _569  and  _570
REMARK  235  A    between atoms: _570  and  _571
REMARK  236  A    between atoms: _576  and  _578
REMARK  237  A    between atoms: _578  and  _579
REMARK  238  A    between atoms: _578  and  _581
REMARK  239  A    between atoms: _581  and  _582
REMARK  240  A    between atoms: _585  and  _587
REMARK  241  A    between atoms: _587  and  _588
REMARK  242  A    between atoms: _590  and  _592
REMARK  243  A    between atoms: _592  and  _593
REMARK  244  A    between atoms: _596  and  _598
REMARK  245  A    between atoms: _598  and  _599
REMARK  246  A    between atoms: _598  and  _601
REMARK  247  A    between atoms: _601  and  _602
REMARK  248  A    between atoms: _607  and  _608
REMARK                            x       y       z     vdW  Elec       q    Type
REMARK                         _______ _______ _______ _____ _____    ______ ____
ROOT
ATOM      1  O   HOH     1      36.864  19.483  37.035  0.00  0.00    +0.000 OA
ENDROOT
TORSDOF 0
REMARK  Name = ../refined-set-2016/3g2n/3g2n_pocket.pdb
REMARK  248 active torsions:
REMARK  status: ('A' for Active; 'I' for Inactive)
REMARK    1  A    between atoms: _1  and  _3
REMARK    2  A    between atoms: _3  and  _4
REMARK    3  A    between atoms: _3  and  _6
REMARK    4  A    between atoms: _6  and  _7
REMARK    5  A    between atoms: _12  and  _13
REMARK    6  A    between atoms: _15  and  _17
REMARK    7  A    between atoms: _17  and  _18
REMARK    8  A    between atoms: _17  and  _20
REMARK    9  A    between atoms: _20  and  _21
REMARK   10  A    between atoms: _21  and  _22
REMARK   11  A    between atoms: _25  and  _27
REMARK   12  A    between atoms: _27  and  _28
REMARK   13  A    between atoms: _27  and  _30
REMARK   14  A    between atoms: _30  and  _31
REMARK   15  A    between atoms: _36  and  _38
REMARK   16  A    between atoms: _38  and  _39
REMARK   17  A    between atoms: _41  and  _43
REMARK   18  A    between atoms: _43  and  _44
REMARK   19  A    between atoms: _46  and  _48
REMARK   20  A    between atoms: _48  and  _49
REMARK   21  A    between atoms: _48  and  _51
REMARK   22  A    between atoms: _51  and  _52
REMARK   23  A    between atoms: _55  and  _57
REMARK   24  A    between atoms: _57  and  _58
REMARK   25  A    between atoms: _60  and  _62
REMARK   26  A    between atoms: _62  and  _63
REMARK   27  A    between atoms: _62  and  _65
REMARK   28  A    between atoms: _65  and  _66
REMARK   29  A    between atoms: _66  and  _67
REMARK   30  A    between atoms: _67  and  _68
REMARK   31  A    between atoms: _77  and  _79
REMARK   32  A    between atoms: _79  and  _80
REMARK   33  A    between atoms: _79  and  _82
REMARK   34  A    between atoms: _82  and  _83
REMARK   35  A    between atoms: _86  and  _88
REMARK   36  A    between atoms: _88  and  _89
REMARK   37  A    between atoms: _92  and  _94
REMARK   38  A    between atoms: _94  and  _95
REMARK   39  A    between atoms: _94  and  _97
REMARK   40  A    between atoms: _97  and  _98
REMARK   41  A    between atoms: _104  and  _106
REMARK   42  A    between atoms: _106  and  _107
REMARK   43  A    between atoms: _106  and  _109
REMARK   44  A    between atoms: _109  and  _110
REMARK   45  A    between atoms: _115  and  _117
REMARK   46  A    between atoms: _117  and  _118
REMARK   47  A    between atoms: _117  and  _120
REMARK   48  A    between atoms: _120  and  _121
REMARK   49  A    between atoms: _124  and  _126
REMARK   50  A    between atoms: _126  and  _127
REMARK   51  A    between atoms: _126  and  _129
REMARK   52  A    between atoms: _129  and  _130
REMARK   53  A    between atoms: _135  and  _137
REMARK   54  A    between atoms: _137  and  _138
REMARK   55  A    between atoms: _137  and  _140
REMARK   56  A    between atoms: _140  and  _141
REMARK   57  A    between atoms: _147  and  _149
REMARK   58  A    between atoms: _149  and  _150
REMARK   59  A    between atoms: _149  and  _152
REMARK   60  A    between atoms: _152  and  _153
REMARK   61  A    between atoms: _159  and  _161
REMARK   62  A    between atoms: _161  and  _162
REMARK   63  A    between atoms: _161  and  _164
REMARK   64  A    between atoms: _164  and  _165
REMARK   65  A    between atoms: _165  and  _166
REMARK   66  A    between atoms: _166  and  _167
REMARK   67  A    between atoms: _176  and  _178
REMARK   68  A    between atoms: _178  and  _179
REMARK   69  A    between atoms: _178  and  _181
REMARK   70  A    between atoms: _181  and  _182
REMARK   71  A    between atoms: _187  and  _189
REMARK   72  A    between atoms: _189  and  _190
REMARK   73  A    between atoms: _189  and  _192
REMARK   74  A    between atoms: _192  and  _193
REMARK   75  A    between atoms: _196  and  _198
REMARK   76  A    between atoms: _198  and  _199
REMARK   77  A    between atoms: _198  and  _201
REMARK   78  A    between atoms: _201  and  _202
REMARK   79  A    between atoms: _205  and  _207
REMARK   80  A    between atoms: _207  and  _208
REMARK   81  A    between atoms: _207  and  _210
REMARK   82  A    between atoms: _210  and  _211
REMARK   83  A    between atoms: _216  and  _218
REMARK   84  A    between atoms: _218  and  _219
REMARK   85  A    between atoms: _218  and  _221
REMARK   86  A    between atoms: _221  and  _222
REMARK   87  A    between atoms: _227  and  _228
REMARK   88  A    between atoms: _230  and  _232
REMARK   89  A    between atoms: _232  and  _233
REMARK   90  A    between atoms: _232  and  _235
REMARK   91  A    between atoms: _235  and  _236
REMARK   92  A    between atoms: _239  and  _241
REMARK   93  A    between atoms: _241  and  _242
REMARK   94  A    between atoms: _241  and  _244
REMARK   95  A    between atoms: _244  and  _245
REMARK   96  A    between atoms: _250  and  _252
REMARK   97  A    between atoms: _252  and  _253
REMARK   98  A    between atoms: _252  and  _255
REMARK   99  A    between atoms: _255  and  _256
REMARK  100  A    between atoms: _261  and  _263
REMARK  101  A    between atoms: _263  and  _264
REMARK  102  A    between atoms: _263  and  _266
REMARK  103  A    between atoms: _266  and  _267
REMARK  104  A    between atoms: _270  and  _272
REMARK  105  A    between atoms: _272  and  _273
REMARK  106  A    between atoms: _272  and  _275
REMARK  107  A    between atoms: _278  and  _280
REMARK  108  A    between atoms: _280  and  _281
REMARK  109  A    between atoms: _280  and  _283
REMARK  110  A    between atoms: _283  and  _284
REMARK  111  A    between atoms: _287  and  _289
REMARK  112  A    between atoms: _289  and  _290
REMARK  113  A    between atoms: _289  and  _292
REMARK  114  A    between atoms: _292  and  _293
REMARK  115  A    between atoms: _293  and  _294
REMARK  116  A    between atoms: _297  and  _299
REMARK  117  A    between atoms: _299  and  _300
REMARK  118  A    between atoms: _303  and  _305
REMARK  119  A    between atoms: _305  and  _306
REMARK  120  A    between atoms: _305  and  _308
REMARK  121  A    between atoms: _308  and  _309
REMARK  122  A    between atoms: _312  and  _314
REMARK  123  A    between atoms: _314  and  _315
REMARK  124  A    between atoms: _314  and  _317
REMARK  125  A    between atoms: _317  and  _318
REMARK  126  A    between atoms: _318  and  _319
REMARK  127  A    between atoms: _322  and  _324
REMARK  128  A    between atoms: _324  and  _325
REMARK  129  A    between atoms: _324  and  _327
REMARK  130  A    between atoms: _327  and  _328
REMARK  131  A    between atoms: _333  and  _335
REMARK  132  A    between atoms: _335  and  _336
REMARK  133  A    between atoms: _338  and  _340
REMARK  134  A    between atoms: _340  and  _341
REMARK  135  A    between atoms: _340  and  _343
REMARK  136  A    between atoms: _346  and  _348
REMARK  137  A    between atoms: _348  and  _349
REMARK  138  A    between atoms: _352  and  _354
REMARK  139  A    between atoms: _354  and  _355
REMARK  140  A    between atoms: _354  and  _357
REMARK  141  A    between atoms: _357  and  _358
REMARK  142  A    between atoms: _363  and  _365
REMARK  143  A    between atoms: _365  and  _366
REMARK  144  A    between atoms: _365  and  _368
REMARK  145  A    between atoms: _368  and  _369
REMARK  146  A    between atoms: _369  and  _370
REMARK  147  A    between atoms: _370  and  _371
REMARK  148  A    between atoms: _371  and  _372
REMARK  149  A    between atoms: _376  and  _378
REMARK  150  A    between atoms: _378  and  _379
REMARK  151  A    between atoms: _378  and  _381
REMARK  152  A    between atoms: _381  and  _382
REMARK  153  A    between atoms: _385  and  _387
REMARK  154  A    between atoms: _387  and  _388
REMARK  155  A    between atoms: _387  and  _390
REMARK  156  A    between atoms: _390  and  _391
REMARK  157  A    between atoms: _396  and  _398
REMARK  158  A    between atoms: _398  and  _399
REMARK  159  A    between atoms: _401  and  _403
REMARK  160  A    between atoms: _403  and  _404
REMARK  161  A    between atoms: _403  and  _406
REMARK  162  A    between atoms: _406  and  _407
REMARK  163  A    between atoms: _407  and  _408
REMARK  164  A    between atoms: _408  and  _409
REMARK  165  A    between atoms: _409  and  _410
REMARK  166  A    between atoms: _414  and  _416
REMARK  167  A    between atoms: _416  and  _417
REMARK  168  A    between atoms: _416  and  _419
REMARK  169  A    between atoms: _419  and  _420
REMARK  170  A    between atoms: _420  and  _421
REMARK  171  A    between atoms: _421  and  _422
REMARK  172  A    between atoms: _431  and  _433
REMARK  173  A    between atoms: _433  and  _434
REMARK  174  A    between atoms: _433  and  _436
REMARK  175  A    between atoms: _436  and  _437
REMARK  176  A    between atoms: _442  and  _444
REMARK  177  A    between atoms: _444  and  _445
REMARK  178  A    between atoms: _444  and  _447
REMARK  179  A    between atoms: _447  and  _448
REMARK  180  A    between atoms: _453  and  _454
REMARK  181  A    between atoms: _456  and  _458
REMARK  182  A    between atoms: _458  and  _459
REMARK  183  A    between atoms: _458  and  _461
REMARK  184  A    between atoms: _461  and  _462
REMARK  185  A    between atoms: _462  and  _463
REMARK  186  A    between atoms: _463  and  _464
REMARK  187  A    between atoms: _464  and  _465
REMARK  188  A    between atoms: _469  and  _471
REMARK  189  A    between atoms: _471  and  _472
REMARK  190  A    between atoms: _471  and  _474
REMARK  191  A    between atoms: _474  and  _475
REMARK  192  A    between atoms: _477  and  _479
REMARK  193  A    between atoms: _479  and  _480
REMARK  194  A    between atoms: _479  and  _482
REMARK  195  A    between atoms: _482  and  _483
REMARK  196  A    between atoms: _486  and  _488
REMARK  197  A    between atoms: _488  and  _489
REMARK  198  A    between atoms: _488  and  _491
REMARK  199  A    between atoms: _491  and  _492
REMARK  200  A    between atoms: _492  and  _493
REMARK  201  A    between atoms: _496  and  _498
REMARK  202  A    between atoms: _498  and  _499
REMARK  203  A    between atoms: _502  and  _504
REMARK  204  A    between atoms: _504  and  _505
REMARK  205  A    between atoms: _504  and  _507
REMARK  206  A    between atoms: _507  and  _508
REMARK  207  A    between atoms: _510  and  _512
REMARK  208  A    between atoms: _512  and  _513
REMARK  209  A    between atoms: _515  and  _517
REMARK  210  A    between atoms: _517  and  _518
REMARK  211  A    between atoms: _517  and  _520
REMARK  212  A    between atoms: _520  and  _521
REMARK  213  A    between atoms: _524  and  _526
REMARK  214  A    between atoms: _526  and  _527
REMARK  215  A    between atoms: _529  and  _531
REMARK  216  A    between atoms: _531  and  _532
REMARK  217  A    between atoms: _531  and  _534
REMARK  218  A    between atoms: _534  and  _535
REMARK  219  A    between atoms: _540  and  _542
REMARK  220  A    between atoms: _542  and  _543
REMARK  221  A    between atoms: _542  and  _545
REMARK  222  A    between atoms: _545  and  _546
REMARK  223  A    between atoms: _546  and  _547
REMARK  224  A    between atoms: _554  and  _555
REMARK  225  A    between atoms: _555  and  _571
REMARK  226  A    between atoms: _556  and  _558
REMARK  227  A    between atoms: _558  and  _559
REMARK  228  A    between atoms: _559  and  _560
REMARK  229  A    between atoms: _564  and  _566
REMARK  230  A    between atoms: _566  and  _567
REMARK  231  A    between atoms: _566  and  _574
REMARK  232  A    between atoms: _567  and  _568
REMARK  233  A    between atoms: _568  and  _569
REMARK  234  A    between atoms: _569  and  _570
REMARK  235  A    between atoms: _570  and  _571
REMARK  236  A    between atoms: _576  and  _578
REMARK  237  A    between atoms: _578  and  _579
REMARK  238  A    between atoms: _578  and  _581
REMARK  239  A    between atoms: _581  and  _582
REMARK  240  A    between atoms: _585  and  _587
REMARK  241  A    between atoms: _587  and  _588
REMARK  242  A    between atoms: _590  and  _592
REMARK  243  A    between atoms: _592  and  _593
REMARK  244  A    between atoms: _596  and  _598
REMARK  245  A    between atoms: _598  and  _599
REMARK  246  A    between atoms: _598  and  _601
REMARK  247  A    between atoms: _601  and  _602
REMARK  248  A    between atoms: _607  and  _608
REMARK                            x       y       z     vdW  Elec       q    Type
REMARK                         _______ _______ _______ _____ _____    ______ ____
ROOT
ATOM      1  O   HOH     1      31.226  23.881  33.530  0.00  0.00    +0.000 OA
ENDROOT
TORSDOF 0
REMARK  Name = ../refined-set-2016/3g2n/3g2n_pocket.pdb
REMARK  248 active torsions:
REMARK  status: ('A' for Active; 'I' for Inactive)
REMARK    1  A    between atoms: _1  and  _3
REMARK    2  A    between atoms: _3  and  _4
REMARK    3  A    between atoms: _3  and  _6
REMARK    4  A    between atoms: _6  and  _7
REMARK    5  A    between atoms: _12  and  _13
REMARK    6  A    between atoms: _15  and  _17
REMARK    7  A    between atoms: _17  and  _18
REMARK    8  A    between atoms: _17  and  _20
REMARK    9  A    between atoms: _20  and  _21
REMARK   10  A    between atoms: _21  and  _22
REMARK   11  A    between atoms: _25  and  _27
REMARK   12  A    between atoms: _27  and  _28
REMARK   13  A    between atoms: _27  and  _30
REMARK   14  A    between atoms: _30  and  _31
REMARK   15  A    between atoms: _36  and  _38
REMARK   16  A    between atoms: _38  and  _39
REMARK   17  A    between atoms: _41  and  _43
REMARK   18  A    between atoms: _43  and  _44
REMARK   19  A    between atoms: _46  and  _48
REMARK   20  A    between atoms: _48  and  _49
REMARK   21  A    between atoms: _48  and  _51
REMARK   22  A    between atoms: _51  and  _52
REMARK   23  A    between atoms: _55  and  _57
REMARK   24  A    between atoms: _57  and  _58
REMARK   25  A    between atoms: _60  and  _62
REMARK   26  A    between atoms: _62  and  _63
REMARK   27  A    between atoms: _62  and  _65
REMARK   28  A    between atoms: _65  and  _66
REMARK   29  A    between atoms: _66  and  _67
REMARK   30  A    between atoms: _67  and  _68
REMARK   31  A    between atoms: _77  and  _79
REMARK   32  A    between atoms: _79  and  _80
REMARK   33  A    between atoms: _79  and  _82
REMARK   34  A    between atoms: _82  and  _83
REMARK   35  A    between atoms: _86  and  _88
REMARK   36  A    between atoms: _88  and  _89
REMARK   37  A    between atoms: _92  and  _94
REMARK   38  A    between atoms: _94  and  _95
REMARK   39  A    between atoms: _94  and  _97
REMARK   40  A    between atoms: _97  and  _98
REMARK   41  A    between atoms: _104  and  _106
REMARK   42  A    between atoms: _106  and  _107
REMARK   43  A    between atoms: _106  and  _109
REMARK   44  A    between atoms: _109  and  _110
REMARK   45  A    between atoms: _115  and  _117
REMARK   46  A    between atoms: _117  and  _118
REMARK   47  A    between atoms: _117  and  _120
REMARK   48  A    between atoms: _120  and  _121
REMARK   49  A    between atoms: _124  and  _126
REMARK   50  A    between atoms: _126  and  _127
REMARK   51  A    between atoms: _126  and  _129
REMARK   52  A    between atoms: _129  and  _130
REMARK   53  A    between atoms: _135  and  _137
REMARK   54  A    between atoms: _137  and  _138
REMARK   55  A    between atoms: _137  and  _140
REMARK   56  A    between atoms: _140  and  _141
REMARK   57  A    between atoms: _147  and  _149
REMARK   58  A    between atoms: _149  and  _150
REMARK   59  A    between atoms: _149  and  _152
REMARK   60  A    between atoms: _152  and  _153
REMARK   61  A    between atoms: _159  and  _161
REMARK   62  A    between atoms: _161  and  _162
REMARK   63  A    between atoms: _161  and  _164
REMARK   64  A    between atoms: _164  and  _165
REMARK   65  A    between atoms: _165  and  _166
REMARK   66  A    between atoms: _166  and  _167
REMARK   67  A    between atoms: _176  and  _178
REMARK   68  A    between atoms: _178  and  _179
REMARK   69  A    between atoms: _178  and  _181
REMARK   70  A    between atoms: _181  and  _182
REMARK   71  A    between atoms: _187  and  _189
REMARK   72  A    between atoms: _189  and  _190
REMARK   73  A    between atoms: _189  and  _192
REMARK   74  A    between atoms: _192  and  _193
REMARK   75  A    between atoms: _196  and  _198
REMARK   76  A    between atoms: _198  and  _199
REMARK   77  A    between atoms: _198  and  _201
REMARK   78  A    between atoms: _201  and  _202
REMARK   79  A    between atoms: _205  and  _207
REMARK   80  A    between atoms: _207  and  _208
REMARK   81  A    between atoms: _207  and  _210
REMARK   82  A    between atoms: _210  and  _211
REMARK   83  A    between atoms: _216  and  _218
REMARK   84  A    between atoms: _218  and  _219
REMARK   85  A    between atoms: _218  and  _221
REMARK   86  A    between atoms: _221  and  _222
REMARK   87  A    between atoms: _227  and  _228
REMARK   88  A    between atoms: _230  and  _232
REMARK   89  A    between atoms: _232  and  _233
REMARK   90  A    between atoms: _232  and  _235
REMARK   91  A    between atoms: _235  and  _236
REMARK   92  A    between atoms: _239  and  _241
REMARK   93  A    between atoms: _241  and  _242
REMARK   94  A    between atoms: _241  and  _244
REMARK   95  A    between atoms: _244  and  _245
REMARK   96  A    between atoms: _250  and  _252
REMARK   97  A    between atoms: _252  and  _253
REMARK   98  A    between atoms: _252  and  _255
REMARK   99  A    between atoms: _255  and  _256
REMARK  100  A    between atoms: _261  and  _263
REMARK  101  A    between atoms: _263  and  _264
REMARK  102  A    between atoms: _263  and  _266
REMARK  103  A    between atoms: _266  and  _267
REMARK  104  A    between atoms: _270  and  _272
REMARK  105  A    between atoms: _272  and  _273
REMARK  106  A    between atoms: _272  and  _275
REMARK  107  A    between atoms: _278  and  _280
REMARK  108  A    between atoms: _280  and  _281
REMARK  109  A    between atoms: _280  and  _283
REMARK  110  A    between atoms: _283  and  _284
REMARK  111  A    between atoms: _287  and  _289
REMARK  112  A    between atoms: _289  and  _290
REMARK  113  A    between atoms: _289  and  _292
REMARK  114  A    between atoms: _292  and  _293
REMARK  115  A    between atoms: _293  and  _294
REMARK  116  A    between atoms: _297  and  _299
REMARK  117  A    between atoms: _299  and  _300
REMARK  118  A    between atoms: _303  and  _305
REMARK  119  A    between atoms: _305  and  _306
REMARK  120  A    between atoms: _305  and  _308
REMARK  121  A    between atoms: _308  and  _309
REMARK  122  A    between atoms: _312  and  _314
REMARK  123  A    between atoms: _314  and  _315
REMARK  124  A    between atoms: _314  and  _317
REMARK  125  A    between atoms: _317  and  _318
REMARK  126  A    between atoms: _318  and  _319
REMARK  127  A    between atoms: _322  and  _324
REMARK  128  A    between atoms: _324  and  _325
REMARK  129  A    between atoms: _324  and  _327
REMARK  130  A    between atoms: _327  and  _328
REMARK  131  A    between atoms: _333  and  _335
REMARK  132  A    between atoms: _335  and  _336
REMARK  133  A    between atoms: _338  and  _340
REMARK  134  A    between atoms: _340  and  _341
REMARK  135  A    between atoms: _340  and  _343
REMARK  136  A    between atoms: _346  and  _348
REMARK  137  A    between atoms: _348  and  _349
REMARK  138  A    between atoms: _352  and  _354
REMARK  139  A    between atoms: _354  and  _355
REMARK  140  A    between atoms: _354  and  _357
REMARK  141  A    between atoms: _357  and  _358
REMARK  142  A    between atoms: _363  and  _365
REMARK  143  A    between atoms: _365  and  _366
REMARK  144  A    between atoms: _365  and  _368
REMARK  145  A    between atoms: _368  and  _369
REMARK  146  A    between atoms: _369  and  _370
REMARK  147  A    between atoms: _370  and  _371
REMARK  148  A    between atoms: _371  and  _372
REMARK  149  A    between atoms: _376  and  _378
REMARK  150  A    between atoms: _378  and  _379
REMARK  151  A    between atoms: _378  and  _381
REMARK  152  A    between atoms: _381  and  _382
REMARK  153  A    between atoms: _385  and  _387
REMARK  154  A    between atoms: _387  and  _388
REMARK  155  A    between atoms: _387  and  _390
REMARK  156  A    between atoms: _390  and  _391
REMARK  157  A    between atoms: _396  and  _398
REMARK  158  A    between atoms: _398  and  _399
REMARK  159  A    between atoms: _401  and  _403
REMARK  160  A    between atoms: _403  and  _404
REMARK  161  A    between atoms: _403  and  _406
REMARK  162  A    between atoms: _406  and  _407
REMARK  163  A    between atoms: _407  and  _408
REMARK  164  A    between atoms: _408  and  _409
REMARK  165  A    between atoms: _409  and  _410
REMARK  166  A    between atoms: _414  and  _416
REMARK  167  A    between atoms: _416  and  _417
REMARK  168  A    between atoms: _416  and  _419
REMARK  169  A    between atoms: _419  and  _420
REMARK  170  A    between atoms: _420  and  _421
REMARK  171  A    between atoms: _421  and  _422
REMARK  172  A    between atoms: _431  and  _433
REMARK  173  A    between atoms: _433  and  _434
REMARK  174  A    between atoms: _433  and  _436
REMARK  175  A    between atoms: _436  and  _437
REMARK  176  A    between atoms: _442  and  _444
REMARK  177  A    between atoms: _444  and  _445
REMARK  178  A    between atoms: _444  and  _447
REMARK  179  A    between atoms: _447  and  _448
REMARK  180  A    between atoms: _453  and  _454
REMARK  181  A    between atoms: _456  and  _458
REMARK  182  A    between atoms: _458  and  _459
REMARK  183  A    between atoms: _458  and  _461
REMARK  184  A    between atoms: _461  and  _462
REMARK  185  A    between atoms: _462  and  _463
REMARK  186  A    between atoms: _463  and  _464
REMARK  187  A    between atoms: _464  and  _465
REMARK  188  A    between atoms: _469  and  _471
REMARK  189  A    between atoms: _471  and  _472
REMARK  190  A    between atoms: _471  and  _474
REMARK  191  A    between atoms: _474  and  _475
REMARK  192  A    between atoms: _477  and  _479
REMARK  193  A    between atoms: _479  and  _480
REMARK  194  A    between atoms: _479  and  _482
REMARK  195  A    between atoms: _482  and  _483
REMARK  196  A    between atoms: _486  and  _488
REMARK  197  A    between atoms: _488  and  _489
REMARK  198  A    between atoms: _488  and  _491
REMARK  199  A    between atoms: _491  and  _492
REMARK  200  A    between atoms: _492  and  _493
REMARK  201  A    between atoms: _496  and  _498
REMARK  202  A    between atoms: _498  and  _499
REMARK  203  A    between atoms: _502  and  _504
REMARK  204  A    between atoms: _504  and  _505
REMARK  205  A    between atoms: _504  and  _507
REMARK  206  A    between atoms: _507  and  _508
REMARK  207  A    between atoms: _510  and  _512
REMARK  208  A    between atoms: _512  and  _513
REMARK  209  A    between atoms: _515  and  _517
REMARK  210  A    between atoms: _517  and  _518
REMARK  211  A    between atoms: _517  and  _520
REMARK  212  A    between atoms: _520  and  _521
REMARK  213  A    between atoms: _524  and  _526
REMARK  214  A    between atoms: _526  and  _527
REMARK  215  A    between atoms: _529  and  _531
REMARK  216  A    between atoms: _531  and  _532
REMARK  217  A    between atoms: _531  and  _534
REMARK  218  A    between atoms: _534  and  _535
REMARK  219  A    between atoms: _540  and  _542
REMARK  220  A    between atoms: _542  and  _543
REMARK  221  A    between atoms: _542  and  _545
REMARK  222  A    between atoms: _545  and  _546
REMARK  223  A    between atoms: _546  and  _547
REMARK  224  A    between atoms: _554  and  _555
REMARK  225  A    between atoms: _555  and  _571
REMARK  226  A    between atoms: _556  and  _558
REMARK  227  A    between atoms: _558  and  _559
REMARK  228  A    between atoms: _559  and  _560
REMARK  229  A    between atoms: _564  and  _566
REMARK  230  A    between atoms: _566  and  _567
REMARK  231  A    between atoms: _566  and  _574
REMARK  232  A    between atoms: _567  and  _568
REMARK  233  A    between atoms: _568  and  _569
REMARK  234  A    between atoms: _569  and  _570
REMARK  235  A    between atoms: _570  and  _571
REMARK  236  A    between atoms: _576  and  _578
REMARK  237  A    between atoms: _578  and  _579
REMARK  238  A    between atoms: _578  and  _581
REMARK  239  A    between atoms: _581  and  _582
REMARK  240  A    between atoms: _585  and  _587
REMARK  241  A    between atoms: _587  and  _588
REMARK  242  A    between atoms: _590  and  _592
REMARK  243  A    between atoms: _592  and  _593
REMARK  244  A    between atoms: _596  and  _598
REMARK  245  A    between atoms: _598  and  _599
REMARK  246  A    between atoms: _598  and  _601
REMARK  247  A    between atoms: _601  and  _602
REMARK  248  A    between atoms: _607  and  _608
REMARK                            x       y       z     vdW  Elec       q    Type
REMARK                         _______ _______ _______ _____ _____    ______ ____
ROOT
ATOM      1  O   HOH     1      36.250  24.891  24.156  0.00  0.00    +0.000 OA
ENDROOT
TORSDOF 0
REMARK  Name = ../refined-set-2016/3g2n/3g2n_pocket.pdb
REMARK  248 active torsions:
REMARK  status: ('A' for Active; 'I' for Inactive)
REMARK    1  A    between atoms: _1  and  _3
REMARK    2  A    between atoms: _3  and  _4
REMARK    3  A    between atoms: _3  and  _6
REMARK    4  A    between atoms: _6  and  _7
REMARK    5  A    between atoms: _12  and  _13
REMARK    6  A    between atoms: _15  and  _17
REMARK    7  A    between atoms: _17  and  _18
REMARK    8  A    between atoms: _17  and  _20
REMARK    9  A    between atoms: _20  and  _21
REMARK   10  A    between atoms: _21  and  _22
REMARK   11  A    between atoms: _25  and  _27
REMARK   12  A    between atoms: _27  and  _28
REMARK   13  A    between atoms: _27  and  _30
REMARK   14  A    between atoms: _30  and  _31
REMARK   15  A    between atoms: _36  and  _38
REMARK   16  A    between atoms: _38  and  _39
REMARK   17  A    between atoms: _41  and  _43
REMARK   18  A    between atoms: _43  and  _44
REMARK   19  A    between atoms: _46  and  _48
REMARK   20  A    between atoms: _48  and  _49
REMARK   21  A    between atoms: _48  and  _51
REMARK   22  A    between atoms: _51  and  _52
REMARK   23  A    between atoms: _55  and  _57
REMARK   24  A    between atoms: _57  and  _58
REMARK   25  A    between atoms: _60  and  _62
REMARK   26  A    between atoms: _62  and  _63
REMARK   27  A    between atoms: _62  and  _65
REMARK   28  A    between atoms: _65  and  _66
REMARK   29  A    between atoms: _66  and  _67
REMARK   30  A    between atoms: _67  and  _68
REMARK   31  A    between atoms: _77  and  _79
REMARK   32  A    between atoms: _79  and  _80
REMARK   33  A    between atoms: _79  and  _82
REMARK   34  A    between atoms: _82  and  _83
REMARK   35  A    between atoms: _86  and  _88
REMARK   36  A    between atoms: _88  and  _89
REMARK   37  A    between atoms: _92  and  _94
REMARK   38  A    between atoms: _94  and  _95
REMARK   39  A    between atoms: _94  and  _97
REMARK   40  A    between atoms: _97  and  _98
REMARK   41  A    between atoms: _104  and  _106
REMARK   42  A    between atoms: _106  and  _107
REMARK   43  A    between atoms: _106  and  _109
REMARK   44  A    between atoms: _109  and  _110
REMARK   45  A    between atoms: _115  and  _117
REMARK   46  A    between atoms: _117  and  _118
REMARK   47  A    between atoms: _117  and  _120
REMARK   48  A    between atoms: _120  and  _121
REMARK   49  A    between atoms: _124  and  _126
REMARK   50  A    between atoms: _126  and  _127
REMARK   51  A    between atoms: _126  and  _129
REMARK   52  A    between atoms: _129  and  _130
REMARK   53  A    between atoms: _135  and  _137
REMARK   54  A    between atoms: _137  and  _138
REMARK   55  A    between atoms: _137  and  _140
REMARK   56  A    between atoms: _140  and  _141
REMARK   57  A    between atoms: _147  and  _149
REMARK   58  A    between atoms: _149  and  _150
REMARK   59  A    between atoms: _149  and  _152
REMARK   60  A    between atoms: _152  and  _153
REMARK   61  A    between atoms: _159  and  _161
REMARK   62  A    between atoms: _161  and  _162
REMARK   63  A    between atoms: _161  and  _164
REMARK   64  A    between atoms: _164  and  _165
REMARK   65  A    between atoms: _165  and  _166
REMARK   66  A    between atoms: _166  and  _167
REMARK   67  A    between atoms: _176  and  _178
REMARK   68  A    between atoms: _178  and  _179
REMARK   69  A    between atoms: _178  and  _181
REMARK   70  A    between atoms: _181  and  _182
REMARK   71  A    between atoms: _187  and  _189
REMARK   72  A    between atoms: _189  and  _190
REMARK   73  A    between atoms: _189  and  _192
REMARK   74  A    between atoms: _192  and  _193
REMARK   75  A    between atoms: _196  and  _198
REMARK   76  A    between atoms: _198  and  _199
REMARK   77  A    between atoms: _198  and  _201
REMARK   78  A    between atoms: _201  and  _202
REMARK   79  A    between atoms: _205  and  _207
REMARK   80  A    between atoms: _207  and  _208
REMARK   81  A    between atoms: _207  and  _210
REMARK   82  A    between atoms: _210  and  _211
REMARK   83  A    between atoms: _216  and  _218
REMARK   84  A    between atoms: _218  and  _219
REMARK   85  A    between atoms: _218  and  _221
REMARK   86  A    between atoms: _221  and  _222
REMARK   87  A    between atoms: _227  and  _228
REMARK   88  A    between atoms: _230  and  _232
REMARK   89  A    between atoms: _232  and  _233
REMARK   90  A    between atoms: _232  and  _235
REMARK   91  A    between atoms: _235  and  _236
REMARK   92  A    between atoms: _239  and  _241
REMARK   93  A    between atoms: _241  and  _242
REMARK   94  A    between atoms: _241  and  _244
REMARK   95  A    between atoms: _244  and  _245
REMARK   96  A    between atoms: _250  and  _252
REMARK   97  A    between atoms: _252  and  _253
REMARK   98  A    between atoms: _252  and  _255
REMARK   99  A    between atoms: _255  and  _256
REMARK  100  A    between atoms: _261  and  _263
REMARK  101  A    between atoms: _263  and  _264
REMARK  102  A    between atoms: _263  and  _266
REMARK  103  A    between atoms: _266  and  _267
REMARK  104  A    between atoms: _270  and  _272
REMARK  105  A    between atoms: _272  and  _273
REMARK  106  A    between atoms: _272  and  _275
REMARK  107  A    between atoms: _278  and  _280
REMARK  108  A    between atoms: _280  and  _281
REMARK  109  A    between atoms: _280  and  _283
REMARK  110  A    between atoms: _283  and  _284
REMARK  111  A    between atoms: _287  and  _289
REMARK  112  A    between atoms: _289  and  _290
REMARK  113  A    between atoms: _289  and  _292
REMARK  114  A    between atoms: _292  and  _293
REMARK  115  A    between atoms: _293  and  _294
REMARK  116  A    between atoms: _297  and  _299
REMARK  117  A    between atoms: _299  and  _300
REMARK  118  A    between atoms: _303  and  _305
REMARK  119  A    between atoms: _305  and  _306
REMARK  120  A    between atoms: _305  and  _308
REMARK  121  A    between atoms: _308  and  _309
REMARK  122  A    between atoms: _312  and  _314
REMARK  123  A    between atoms: _314  and  _315
REMARK  124  A    between atoms: _314  and  _317
REMARK  125  A    between atoms: _317  and  _318
REMARK  126  A    between atoms: _318  and  _319
REMARK  127  A    between atoms: _322  and  _324
REMARK  128  A    between atoms: _324  and  _325
REMARK  129  A    between atoms: _324  and  _327
REMARK  130  A    between atoms: _327  and  _328
REMARK  131  A    between atoms: _333  and  _335
REMARK  132  A    between atoms: _335  and  _336
REMARK  133  A    between atoms: _338  and  _340
REMARK  134  A    between atoms: _340  and  _341
REMARK  135  A    between atoms: _340  and  _343
REMARK  136  A    between atoms: _346  and  _348
REMARK  137  A    between atoms: _348  and  _349
REMARK  138  A    between atoms: _352  and  _354
REMARK  139  A    between atoms: _354  and  _355
REMARK  140  A    between atoms: _354  and  _357
REMARK  141  A    between atoms: _357  and  _358
REMARK  142  A    between atoms: _363  and  _365
REMARK  143  A    between atoms: _365  and  _366
REMARK  144  A    between atoms: _365  and  _368
REMARK  145  A    between atoms: _368  and  _369
REMARK  146  A    between atoms: _369  and  _370
REMARK  147  A    between atoms: _370  and  _371
REMARK  148  A    between atoms: _371  and  _372
REMARK  149  A    between atoms: _376  and  _378
REMARK  150  A    between atoms: _378  and  _379
REMARK  151  A    between atoms: _378  and  _381
REMARK  152  A    between atoms: _381  and  _382
REMARK  153  A    between atoms: _385  and  _387
REMARK  154  A    between atoms: _387  and  _388
REMARK  155  A    between atoms: _387  and  _390
REMARK  156  A    between atoms: _390  and  _391
REMARK  157  A    between atoms: _396  and  _398
REMARK  158  A    between atoms: _398  and  _399
REMARK  159  A    between atoms: _401  and  _403
REMARK  160  A    between atoms: _403  and  _404
REMARK  161  A    between atoms: _403  and  _406
REMARK  162  A    between atoms: _406  and  _407
REMARK  163  A    between atoms: _407  and  _408
REMARK  164  A    between atoms: _408  and  _409
REMARK  165  A    between atoms: _409  and  _410
REMARK  166  A    between atoms: _414  and  _416
REMARK  167  A    between atoms: _416  and  _417
REMARK  168  A    between atoms: _416  and  _419
REMARK  169  A    between atoms: _419  and  _420
REMARK  170  A    between atoms: _420  and  _421
REMARK  171  A    between atoms: _421  and  _422
REMARK  172  A    between atoms: _431  and  _433
REMARK  173  A    between atoms: _433  and  _434
REMARK  174  A    between atoms: _433  and  _436
REMARK  175  A    between atoms: _436  and  _437
REMARK  176  A    between atoms: _442  and  _444
REMARK  177  A    between atoms: _444  and  _445
REMARK  178  A    between atoms: _444  and  _447
REMARK  179  A    between atoms: _447  and  _448
REMARK  180  A    between atoms: _453  and  _454
REMARK  181  A    between atoms: _456  and  _458
REMARK  182  A    between atoms: _458  and  _459
REMARK  183  A    between atoms: _458  and  _461
REMARK  184  A    between atoms: _461  and  _462
REMARK  185  A    between atoms: _462  and  _463
REMARK  186  A    between atoms: _463  and  _464
REMARK  187  A    between atoms: _464  and  _465
REMARK  188  A    between atoms: _469  and  _471
REMARK  189  A    between atoms: _471  and  _472
REMARK  190  A    between atoms: _471  and  _474
REMARK  191  A    between atoms: _474  and  _475
REMARK  192  A    between atoms: _477  and  _479
REMARK  193  A    between atoms: _479  and  _480
REMARK  194  A    between atoms: _479  and  _482
REMARK  195  A    between atoms: _482  and  _483
REMARK  196  A    between atoms: _486  and  _488
REMARK  197  A    between atoms: _488  and  _489
REMARK  198  A    between atoms: _488  and  _491
REMARK  199  A    between atoms: _491  and  _492
REMARK  200  A    between atoms: _492  and  _493
REMARK  201  A    between atoms: _496  and  _498
REMARK  202  A    between atoms: _498  and  _499
REMARK  203  A    between atoms: _502  and  _504
REMARK  204  A    between atoms: _504  and  _505
REMARK  205  A    between atoms: _504  and  _507
REMARK  206  A    between atoms: _507  and  _508
REMARK  207  A    between atoms: _510  and  _512
REMARK  208  A    between atoms: _512  and  _513
REMARK  209  A    between atoms: _515  and  _517
REMARK  210  A    between atoms: _517  and  _518
REMARK  211  A    between atoms: _517  and  _520
REMARK  212  A    between atoms: _520  and  _521
REMARK  213  A    between atoms: _524  and  _526
REMARK  214  A    between atoms: _526  and  _527
REMARK  215  A    between atoms: _529  and  _531
REMARK  216  A    between atoms: _531  and  _532
REMARK  217  A    between atoms: _531  and  _534
REMARK  218  A    between atoms: _534  and  _535
REMARK  219  A    between atoms: _540  and  _542
REMARK  220  A    between atoms: _542  and  _543
REMARK  221  A    between atoms: _542  and  _545
REMARK  222  A    between atoms: _545  and  _546
REMARK  223  A    between atoms: _546  and  _547
REMARK  224  A    between atoms: _554  and  _555
REMARK  225  A    between atoms: _555  and  _571
REMARK  226  A    between atoms: _556  and  _558
REMARK  227  A    between atoms: _558  and  _559
REMARK  228  A    between atoms: _559  and  _560
REMARK  229  A    between atoms: _564  and  _566
REMARK  230  A    between atoms: _566  and  _567
REMARK  231  A    between atoms: _566  and  _574
REMARK  232  A    between atoms: _567  and  _568
REMARK  233  A    between atoms: _568  and  _569
REMARK  234  A    between atoms: _569  and  _570
REMARK  235  A    between atoms: _570  and  _571
REMARK  236  A    between atoms: _576  and  _578
REMARK  237  A    between atoms: _578  and  _579
REMARK  238  A    between atoms: _578  and  _581
REMARK  239  A    between atoms: _581  and  _582
REMARK  240  A    between atoms: _585  and  _587
REMARK  241  A    between atoms: _587  and  _588
REMARK  242  A    between atoms: _590  and  _592
REMARK  243  A    between atoms: _592  and  _593
REMARK  244  A    between atoms: _596  and  _598
REMARK  245  A    between atoms: _598  and  _599
REMARK  246  A    between atoms: _598  and  _601
REMARK  247  A    between atoms: _601  and  _602
REMARK  248  A    between atoms: _607  and  _608
REMARK                            x       y       z     vdW  Elec       q    Type
REMARK                         _______ _______ _______ _____ _____    ______ ____
ROOT
ATOM      1  O   HOH     1      43.257  20.712  30.116  0.00  0.00    +0.000 OA
ENDROOT
TORSDOF 0
REMARK  Name = ../refined-set-2016/3g2n/3g2n_pocket.pdb
REMARK  248 active torsions:
REMARK  status: ('A' for Active; 'I' for Inactive)
REMARK    1  A    between atoms: _1  and  _3
REMARK    2  A    between atoms: _3  and  _4
REMARK    3  A    between atoms: _3  and  _6
REMARK    4  A    between atoms: _6  and  _7
REMARK    5  A    between atoms: _12  and  _13
REMARK    6  A    between atoms: _15  and  _17
REMARK    7  A    between atoms: _17  and  _18
REMARK    8  A    between atoms: _17  and  _20
REMARK    9  A    between atoms: _20  and  _21
REMARK   10  A    between atoms: _21  and  _22
REMARK   11  A    between atoms: _25  and  _27
REMARK   12  A    between atoms: _27  and  _28
REMARK   13  A    between atoms: _27  and  _30
REMARK   14  A    between atoms: _30  and  _31
REMARK   15  A    between atoms: _36  and  _38
REMARK   16  A    between atoms: _38  and  _39
REMARK   17  A    between atoms: _41  and  _43
REMARK   18  A    between atoms: _43  and  _44
REMARK   19  A    between atoms: _46  and  _48
REMARK   20  A    between atoms: _48  and  _49
REMARK   21  A    between atoms: _48  and  _51
REMARK   22  A    between atoms: _51  and  _52
REMARK   23  A    between atoms: _55  and  _57
REMARK   24  A    between atoms: _57  and  _58
REMARK   25  A    between atoms: _60  and  _62
REMARK   26  A    between atoms: _62  and  _63
REMARK   27  A    between atoms: _62  and  _65
REMARK   28  A    between atoms: _65  and  _66
REMARK   29  A    between atoms: _66  and  _67
REMARK   30  A    between atoms: _67  and  _68
REMARK   31  A    between atoms: _77  and  _79
REMARK   32  A    between atoms: _79  and  _80
REMARK   33  A    between atoms: _79  and  _82
REMARK   34  A    between atoms: _82  and  _83
REMARK   35  A    between atoms: _86  and  _88
REMARK   36  A    between atoms: _88  and  _89
REMARK   37  A    between atoms: _92  and  _94
REMARK   38  A    between atoms: _94  and  _95
REMARK   39  A    between atoms: _94  and  _97
REMARK   40  A    between atoms: _97  and  _98
REMARK   41  A    between atoms: _104  and  _106
REMARK   42  A    between atoms: _106  and  _107
REMARK   43  A    between atoms: _106  and  _109
REMARK   44  A    between atoms: _109  and  _110
REMARK   45  A    between atoms: _115  and  _117
REMARK   46  A    between atoms: _117  and  _118
REMARK   47  A    between atoms: _117  and  _120
REMARK   48  A    between atoms: _120  and  _121
REMARK   49  A    between atoms: _124  and  _126
REMARK   50  A    between atoms: _126  and  _127
REMARK   51  A    between atoms: _126  and  _129
REMARK   52  A    between atoms: _129  and  _130
REMARK   53  A    between atoms: _135  and  _137
REMARK   54  A    between atoms: _137  and  _138
REMARK   55  A    between atoms: _137  and  _140
REMARK   56  A    between atoms: _140  and  _141
REMARK   57  A    between atoms: _147  and  _149
REMARK   58  A    between atoms: _149  and  _150
REMARK   59  A    between atoms: _149  and  _152
REMARK   60  A    between atoms: _152  and  _153
REMARK   61  A    between atoms: _159  and  _161
REMARK   62  A    between atoms: _161  and  _162
REMARK   63  A    between atoms: _161  and  _164
REMARK   64  A    between atoms: _164  and  _165
REMARK   65  A    between atoms: _165  and  _166
REMARK   66  A    between atoms: _166  and  _167
REMARK   67  A    between atoms: _176  and  _178
REMARK   68  A    between atoms: _178  and  _179
REMARK   69  A    between atoms: _178  and  _181
REMARK   70  A    between atoms: _181  and  _182
REMARK   71  A    between atoms: _187  and  _189
REMARK   72  A    between atoms: _189  and  _190
REMARK   73  A    between atoms: _189  and  _192
REMARK   74  A    between atoms: _192  and  _193
REMARK   75  A    between atoms: _196  and  _198
REMARK   76  A    between atoms: _198  and  _199
REMARK   77  A    between atoms: _198  and  _201
REMARK   78  A    between atoms: _201  and  _202
REMARK   79  A    between atoms: _205  and  _207
REMARK   80  A    between atoms: _207  and  _208
REMARK   81  A    between atoms: _207  and  _210
REMARK   82  A    between atoms: _210  and  _211
REMARK   83  A    between atoms: _216  and  _218
REMARK   84  A    between atoms: _218  and  _219
REMARK   85  A    between atoms: _218  and  _221
REMARK   86  A    between atoms: _221  and  _222
REMARK   87  A    between atoms: _227  and  _228
REMARK   88  A    between atoms: _230  and  _232
REMARK   89  A    between atoms: _232  and  _233
REMARK   90  A    between atoms: _232  and  _235
REMARK   91  A    between atoms: _235  and  _236
REMARK   92  A    between atoms: _239  and  _241
REMARK   93  A    between atoms: _241  and  _242
REMARK   94  A    between atoms: _241  and  _244
REMARK   95  A    between atoms: _244  and  _245
REMARK   96  A    between atoms: _250  and  _252
REMARK   97  A    between atoms: _252  and  _253
REMARK   98  A    between atoms: _252  and  _255
REMARK   99  A    between atoms: _255  and  _256
REMARK  100  A    between atoms: _261  and  _263
REMARK  101  A    between atoms: _263  and  _264
REMARK  102  A    between atoms: _263  and  _266
REMARK  103  A    between atoms: _266  and  _267
REMARK  104  A    between atoms: _270  and  _272
REMARK  105  A    between atoms: _272  and  _273
REMARK  106  A    between atoms: _272  and  _275
REMARK  107  A    between atoms: _278  and  _280
REMARK  108  A    between atoms: _280  and  _281
REMARK  109  A    between atoms: _280  and  _283
REMARK  110  A    between atoms: _283  and  _284
REMARK  111  A    between atoms: _287  and  _289
REMARK  112  A    between atoms: _289  and  _290
REMARK  113  A    between atoms: _289  and  _292
REMARK  114  A    between atoms: _292  and  _293
REMARK  115  A    between atoms: _293  and  _294
REMARK  116  A    between atoms: _297  and  _299
REMARK  117  A    between atoms: _299  and  _300
REMARK  118  A    between atoms: _303  and  _305
REMARK  119  A    between atoms: _305  and  _306
REMARK  120  A    between atoms: _305  and  _308
REMARK  121  A    between atoms: _308  and  _309
REMARK  122  A    between atoms: _312  and  _314
REMARK  123  A    between atoms: _314  and  _315
REMARK  124  A    between atoms: _314  and  _317
REMARK  125  A    between atoms: _317  and  _318
REMARK  126  A    between atoms: _318  and  _319
REMARK  127  A    between atoms: _322  and  _324
REMARK  128  A    between atoms: _324  and  _325
REMARK  129  A    between atoms: _324  and  _327
REMARK  130  A    between atoms: _327  and  _328
REMARK  131  A    between atoms: _333  and  _335
REMARK  132  A    between atoms: _335  and  _336
REMARK  133  A    between atoms: _338  and  _340
REMARK  134  A    between atoms: _340  and  _341
REMARK  135  A    between atoms: _340  and  _343
REMARK  136  A    between atoms: _346  and  _348
REMARK  137  A    between atoms: _348  and  _349
REMARK  138  A    between atoms: _352  and  _354
REMARK  139  A    between atoms: _354  and  _355
REMARK  140  A    between atoms: _354  and  _357
REMARK  141  A    between atoms: _357  and  _358
REMARK  142  A    between atoms: _363  and  _365
REMARK  143  A    between atoms: _365  and  _366
REMARK  144  A    between atoms: _365  and  _368
REMARK  145  A    between atoms: _368  and  _369
REMARK  146  A    between atoms: _369  and  _370
REMARK  147  A    between atoms: _370  and  _371
REMARK  148  A    between atoms: _371  and  _372
REMARK  149  A    between atoms: _376  and  _378
REMARK  150  A    between atoms: _378  and  _379
REMARK  151  A    between atoms: _378  and  _381
REMARK  152  A    between atoms: _381  and  _382
REMARK  153  A    between atoms: _385  and  _387
REMARK  154  A    between atoms: _387  and  _388
REMARK  155  A    between atoms: _387  and  _390
REMARK  156  A    between atoms: _390  and  _391
REMARK  157  A    between atoms: _396  and  _398
REMARK  158  A    between atoms: _398  and  _399
REMARK  159  A    between atoms: _401  and  _403
REMARK  160  A    between atoms: _403  and  _404
REMARK  161  A    between atoms: _403  and  _406
REMARK  162  A    between atoms: _406  and  _407
REMARK  163  A    between atoms: _407  and  _408
REMARK  164  A    between atoms: _408  and  _409
REMARK  165  A    between atoms: _409  and  _410
REMARK  166  A    between atoms: _414  and  _416
REMARK  167  A    between atoms: _416  and  _417
REMARK  168  A    between atoms: _416  and  _419
REMARK  169  A    between atoms: _419  and  _420
REMARK  170  A    between atoms: _420  and  _421
REMARK  171  A    between atoms: _421  and  _422
REMARK  172  A    between atoms: _431  and  _433
REMARK  173  A    between atoms: _433  and  _434
REMARK  174  A    between atoms: _433  and  _436
REMARK  175  A    between atoms: _436  and  _437
REMARK  176  A    between atoms: _442  and  _444
REMARK  177  A    between atoms: _444  and  _445
REMARK  178  A    between atoms: _444  and  _447
REMARK  179  A    between atoms: _447  and  _448
REMARK  180  A    between atoms: _453  and  _454
REMARK  181  A    between atoms: _456  and  _458
REMARK  182  A    between atoms: _458  and  _459
REMARK  183  A    between atoms: _458  and  _461
REMARK  184  A    between atoms: _461  and  _462
REMARK  185  A    between atoms: _462  and  _463
REMARK  186  A    between atoms: _463  and  _464
REMARK  187  A    between atoms: _464  and  _465
REMARK  188  A    between atoms: _469  and  _471
REMARK  189  A    between atoms: _471  and  _472
REMARK  190  A    between atoms: _471  and  _474
REMARK  191  A    between atoms: _474  and  _475
REMARK  192  A    between atoms: _477  and  _479
REMARK  193  A    between atoms: _479  and  _480
REMARK  194  A    between atoms: _479  and  _482
REMARK  195  A    between atoms: _482  and  _483
REMARK  196  A    between atoms: _486  and  _488
REMARK  197  A    between atoms: _488  and  _489
REMARK  198  A    between atoms: _488  and  _491
REMARK  199  A    between atoms: _491  and  _492
REMARK  200  A    between atoms: _492  and  _493
REMARK  201  A    between atoms: _496  and  _498
REMARK  202  A    between atoms: _498  and  _499
REMARK  203  A    between atoms: _502  and  _504
REMARK  204  A    between atoms: _504  and  _505
REMARK  205  A    between atoms: _504  and  _507
REMARK  206  A    between atoms: _507  and  _508
REMARK  207  A    between atoms: _510  and  _512
REMARK  208  A    between atoms: _512  and  _513
REMARK  209  A    between atoms: _515  and  _517
REMARK  210  A    between atoms: _517  and  _518
REMARK  211  A    between atoms: _517  and  _520
REMARK  212  A    between atoms: _520  and  _521
REMARK  213  A    between atoms: _524  and  _526
REMARK  214  A    between atoms: _526  and  _527
REMARK  215  A    between atoms: _529  and  _531
REMARK  216  A    between atoms: _531  and  _532
REMARK  217  A    between atoms: _531  and  _534
REMARK  218  A    between atoms: _534  and  _535
REMARK  219  A    between atoms: _540  and  _542
REMARK  220  A    between atoms: _542  and  _543
REMARK  221  A    between atoms: _542  and  _545
REMARK  222  A    between atoms: _545  and  _546
REMARK  223  A    between atoms: _546  and  _547
REMARK  224  A    between atoms: _554  and  _555
REMARK  225  A    between atoms: _555  and  _571
REMARK  226  A    between atoms: _556  and  _558
REMARK  227  A    between atoms: _558  and  _559
REMARK  228  A    between atoms: _559  and  _560
REMARK  229  A    between atoms: _564  and  _566
REMARK  230  A    between atoms: _566  and  _567
REMARK  231  A    between atoms: _566  and  _574
REMARK  232  A    between atoms: _567  and  _568
REMARK  233  A    between atoms: _568  and  _569
REMARK  234  A    between atoms: _569  and  _570
REMARK  235  A    between atoms: _570  and  _571
REMARK  236  A    between atoms: _576  and  _578
REMARK  237  A    between atoms: _578  and  _579
REMARK  238  A    between atoms: _578  and  _581
REMARK  239  A    between atoms: _581  and  _582
REMARK  240  A    between atoms: _585  and  _587
REMARK  241  A    between atoms: _587  and  _588
REMARK  242  A    between atoms: _590  and  _592
REMARK  243  A    between atoms: _592  and  _593
REMARK  244  A    between atoms: _596  and  _598
REMARK  245  A    between atoms: _598  and  _599
REMARK  246  A    between atoms: _598  and  _601
REMARK  247  A    between atoms: _601  and  _602
REMARK  248  A    between atoms: _607  and  _608
REMARK                            x       y       z     vdW  Elec       q    Type
REMARK                         _______ _______ _______ _____ _____    ______ ____
ROOT
ATOM      1  O   HOH     1      38.669  23.833  22.426  0.00  0.00    +0.000 OA
ENDROOT
TORSDOF 0
REMARK  Name = ../refined-set-2016/3g2n/3g2n_pocket.pdb
REMARK  248 active torsions:
REMARK  status: ('A' for Active; 'I' for Inactive)
REMARK    1  A    between atoms: _1  and  _3
REMARK    2  A    between atoms: _3  and  _4
REMARK    3  A    between atoms: _3  and  _6
REMARK    4  A    between atoms: _6  and  _7
REMARK    5  A    between atoms: _12  and  _13
REMARK    6  A    between atoms: _15  and  _17
REMARK    7  A    between atoms: _17  and  _18
REMARK    8  A    between atoms: _17  and  _20
REMARK    9  A    between atoms: _20  and  _21
REMARK   10  A    between atoms: _21  and  _22
REMARK   11  A    between atoms: _25  and  _27
REMARK   12  A    between atoms: _27  and  _28
REMARK   13  A    between atoms: _27  and  _30
REMARK   14  A    between atoms: _30  and  _31
REMARK   15  A    between atoms: _36  and  _38
REMARK   16  A    between atoms: _38  and  _39
REMARK   17  A    between atoms: _41  and  _43
REMARK   18  A    between atoms: _43  and  _44
REMARK   19  A    between atoms: _46  and  _48
REMARK   20  A    between atoms: _48  and  _49
REMARK   21  A    between atoms: _48  and  _51
REMARK   22  A    between atoms: _51  and  _52
REMARK   23  A    between atoms: _55  and  _57
REMARK   24  A    between atoms: _57  and  _58
REMARK   25  A    between atoms: _60  and  _62
REMARK   26  A    between atoms: _62  and  _63
REMARK   27  A    between atoms: _62  and  _65
REMARK   28  A    between atoms: _65  and  _66
REMARK   29  A    between atoms: _66  and  _67
REMARK   30  A    between atoms: _67  and  _68
REMARK   31  A    between atoms: _77  and  _79
REMARK   32  A    between atoms: _79  and  _80
REMARK   33  A    between atoms: _79  and  _82
REMARK   34  A    between atoms: _82  and  _83
REMARK   35  A    between atoms: _86  and  _88
REMARK   36  A    between atoms: _88  and  _89
REMARK   37  A    between atoms: _92  and  _94
REMARK   38  A    between atoms: _94  and  _95
REMARK   39  A    between atoms: _94  and  _97
REMARK   40  A    between atoms: _97  and  _98
REMARK   41  A    between atoms: _104  and  _106
REMARK   42  A    between atoms: _106  and  _107
REMARK   43  A    between atoms: _106  and  _109
REMARK   44  A    between atoms: _109  and  _110
REMARK   45  A    between atoms: _115  and  _117
REMARK   46  A    between atoms: _117  and  _118
REMARK   47  A    between atoms: _117  and  _120
REMARK   48  A    between atoms: _120  and  _121
REMARK   49  A    between atoms: _124  and  _126
REMARK   50  A    between atoms: _126  and  _127
REMARK   51  A    between atoms: _126  and  _129
REMARK   52  A    between atoms: _129  and  _130
REMARK   53  A    between atoms: _135  and  _137
REMARK   54  A    between atoms: _137  and  _138
REMARK   55  A    between atoms: _137  and  _140
REMARK   56  A    between atoms: _140  and  _141
REMARK   57  A    between atoms: _147  and  _149
REMARK   58  A    between atoms: _149  and  _150
REMARK   59  A    between atoms: _149  and  _152
REMARK   60  A    between atoms: _152  and  _153
REMARK   61  A    between atoms: _159  and  _161
REMARK   62  A    between atoms: _161  and  _162
REMARK   63  A    between atoms: _161  and  _164
REMARK   64  A    between atoms: _164  and  _165
REMARK   65  A    between atoms: _165  and  _166
REMARK   66  A    between atoms: _166  and  _167
REMARK   67  A    between atoms: _176  and  _178
REMARK   68  A    between atoms: _178  and  _179
REMARK   69  A    between atoms: _178  and  _181
REMARK   70  A    between atoms: _181  and  _182
REMARK   71  A    between atoms: _187  and  _189
REMARK   72  A    between atoms: _189  and  _190
REMARK   73  A    between atoms: _189  and  _192
REMARK   74  A    between atoms: _192  and  _193
REMARK   75  A    between atoms: _196  and  _198
REMARK   76  A    between atoms: _198  and  _199
REMARK   77  A    between atoms: _198  and  _201
REMARK   78  A    between atoms: _201  and  _202
REMARK   79  A    between atoms: _205  and  _207
REMARK   80  A    between atoms: _207  and  _208
REMARK   81  A    between atoms: _207  and  _210
REMARK   82  A    between atoms: _210  and  _211
REMARK   83  A    between atoms: _216  and  _218
REMARK   84  A    between atoms: _218  and  _219
REMARK   85  A    between atoms: _218  and  _221
REMARK   86  A    between atoms: _221  and  _222
REMARK   87  A    between atoms: _227  and  _228
REMARK   88  A    between atoms: _230  and  _232
REMARK   89  A    between atoms: _232  and  _233
REMARK   90  A    between atoms: _232  and  _235
REMARK   91  A    between atoms: _235  and  _236
REMARK   92  A    between atoms: _239  and  _241
REMARK   93  A    between atoms: _241  and  _242
REMARK   94  A    between atoms: _241  and  _244
REMARK   95  A    between atoms: _244  and  _245
REMARK   96  A    between atoms: _250  and  _252
REMARK   97  A    between atoms: _252  and  _253
REMARK   98  A    between atoms: _252  and  _255
REMARK   99  A    between atoms: _255  and  _256
REMARK  100  A    between atoms: _261  and  _263
REMARK  101  A    between atoms: _263  and  _264
REMARK  102  A    between atoms: _263  and  _266
REMARK  103  A    between atoms: _266  and  _267
REMARK  104  A    between atoms: _270  and  _272
REMARK  105  A    between atoms: _272  and  _273
REMARK  106  A    between atoms: _272  and  _275
REMARK  107  A    between atoms: _278  and  _280
REMARK  108  A    between atoms: _280  and  _281
REMARK  109  A    between atoms: _280  and  _283
REMARK  110  A    between atoms: _283  and  _284
REMARK  111  A    between atoms: _287  and  _289
REMARK  112  A    between atoms: _289  and  _290
REMARK  113  A    between atoms: _289  and  _292
REMARK  114  A    between atoms: _292  and  _293
REMARK  115  A    between atoms: _293  and  _294
REMARK  116  A    between atoms: _297  and  _299
REMARK  117  A    between atoms: _299  and  _300
REMARK  118  A    between atoms: _303  and  _305
REMARK  119  A    between atoms: _305  and  _306
REMARK  120  A    between atoms: _305  and  _308
REMARK  121  A    between atoms: _308  and  _309
REMARK  122  A    between atoms: _312  and  _314
REMARK  123  A    between atoms: _314  and  _315
REMARK  124  A    between atoms: _314  and  _317
REMARK  125  A    between atoms: _317  and  _318
REMARK  126  A    between atoms: _318  and  _319
REMARK  127  A    between atoms: _322  and  _324
REMARK  128  A    between atoms: _324  and  _325
REMARK  129  A    between atoms: _324  and  _327
REMARK  130  A    between atoms: _327  and  _328
REMARK  131  A    between atoms: _333  and  _335
REMARK  132  A    between atoms: _335  and  _336
REMARK  133  A    between atoms: _338  and  _340
REMARK  134  A    between atoms: _340  and  _341
REMARK  135  A    between atoms: _340  and  _343
REMARK  136  A    between atoms: _346  and  _348
REMARK  137  A    between atoms: _348  and  _349
REMARK  138  A    between atoms: _352  and  _354
REMARK  139  A    between atoms: _354  and  _355
REMARK  140  A    between atoms: _354  and  _357
REMARK  141  A    between atoms: _357  and  _358
REMARK  142  A    between atoms: _363  and  _365
REMARK  143  A    between atoms: _365  and  _366
REMARK  144  A    between atoms: _365  and  _368
REMARK  145  A    between atoms: _368  and  _369
REMARK  146  A    between atoms: _369  and  _370
REMARK  147  A    between atoms: _370  and  _371
REMARK  148  A    between atoms: _371  and  _372
REMARK  149  A    between atoms: _376  and  _378
REMARK  150  A    between atoms: _378  and  _379
REMARK  151  A    between atoms: _378  and  _381
REMARK  152  A    between atoms: _381  and  _382
REMARK  153  A    between atoms: _385  and  _387
REMARK  154  A    between atoms: _387  and  _388
REMARK  155  A    between atoms: _387  and  _390
REMARK  156  A    between atoms: _390  and  _391
REMARK  157  A    between atoms: _396  and  _398
REMARK  158  A    between atoms: _398  and  _399
REMARK  159  A    between atoms: _401  and  _403
REMARK  160  A    between atoms: _403  and  _404
REMARK  161  A    between atoms: _403  and  _406
REMARK  162  A    between atoms: _406  and  _407
REMARK  163  A    between atoms: _407  and  _408
REMARK  164  A    between atoms: _408  and  _409
REMARK  165  A    between atoms: _409  and  _410
REMARK  166  A    between atoms: _414  and  _416
REMARK  167  A    between atoms: _416  and  _417
REMARK  168  A    between atoms: _416  and  _419
REMARK  169  A    between atoms: _419  and  _420
REMARK  170  A    between atoms: _420  and  _421
REMARK  171  A    between atoms: _421  and  _422
REMARK  172  A    between atoms: _431  and  _433
REMARK  173  A    between atoms: _433  and  _434
REMARK  174  A    between atoms: _433  and  _436
REMARK  175  A    between atoms: _436  and  _437
REMARK  176  A    between atoms: _442  and  _444
REMARK  177  A    between atoms: _444  and  _445
REMARK  178  A    between atoms: _444  and  _447
REMARK  179  A    between atoms: _447  and  _448
REMARK  180  A    between atoms: _453  and  _454
REMARK  181  A    between atoms: _456  and  _458
REMARK  182  A    between atoms: _458  and  _459
REMARK  183  A    between atoms: _458  and  _461
REMARK  184  A    between atoms: _461  and  _462
REMARK  185  A    between atoms: _462  and  _463
REMARK  186  A    between atoms: _463  and  _464
REMARK  187  A    between atoms: _464  and  _465
REMARK  188  A    between atoms: _469  and  _471
REMARK  189  A    between atoms: _471  and  _472
REMARK  190  A    between atoms: _471  and  _474
REMARK  191  A    between atoms: _474  and  _475
REMARK  192  A    between atoms: _477  and  _479
REMARK  193  A    between atoms: _479  and  _480
REMARK  194  A    between atoms: _479  and  _482
REMARK  195  A    between atoms: _482  and  _483
REMARK  196  A    between atoms: _486  and  _488
REMARK  197  A    between atoms: _488  and  _489
REMARK  198  A    between atoms: _488  and  _491
REMARK  199  A    between atoms: _491  and  _492
REMARK  200  A    between atoms: _492  and  _493
REMARK  201  A    between atoms: _496  and  _498
REMARK  202  A    between atoms: _498  and  _499
REMARK  203  A    between atoms: _502  and  _504
REMARK  204  A    between atoms: _504  and  _505
REMARK  205  A    between atoms: _504  and  _507
REMARK  206  A    between atoms: _507  and  _508
REMARK  207  A    between atoms: _510  and  _512
REMARK  208  A    between atoms: _512  and  _513
REMARK  209  A    between atoms: _515  and  _517
REMARK  210  A    between atoms: _517  and  _518
REMARK  211  A    between atoms: _517  and  _520
REMARK  212  A    between atoms: _520  and  _521
REMARK  213  A    between atoms: _524  and  _526
REMARK  214  A    between atoms: _526  and  _527
REMARK  215  A    between atoms: _529  and  _531
REMARK  216  A    between atoms: _531  and  _532
REMARK  217  A    between atoms: _531  and  _534
REMARK  218  A    between atoms: _534  and  _535
REMARK  219  A    between atoms: _540  and  _542
REMARK  220  A    between atoms: _542  and  _543
REMARK  221  A    between atoms: _542  and  _545
REMARK  222  A    between atoms: _545  and  _546
REMARK  223  A    between atoms: _546  and  _547
REMARK  224  A    between atoms: _554  and  _555
REMARK  225  A    between atoms: _555  and  _571
REMARK  226  A    between atoms: _556  and  _558
REMARK  227  A    between atoms: _558  and  _559
REMARK  228  A    between atoms: _559  and  _560
REMARK  229  A    between atoms: _564  and  _566
REMARK  230  A    between atoms: _566  and  _567
REMARK  231  A    between atoms: _566  and  _574
REMARK  232  A    between atoms: _567  and  _568
REMARK  233  A    between atoms: _568  and  _569
REMARK  234  A    between atoms: _569  and  _570
REMARK  235  A    between atoms: _570  and  _571
REMARK  236  A    between atoms: _576  and  _578
REMARK  237  A    between atoms: _578  and  _579
REMARK  238  A    between atoms: _578  and  _581
REMARK  239  A    between atoms: _581  and  _582
REMARK  240  A    between atoms: _585  and  _587
REMARK  241  A    between atoms: _587  and  _588
REMARK  242  A    between atoms: _590  and  _592
REMARK  243  A    between atoms: _592  and  _593
REMARK  244  A    between atoms: _596  and  _598
REMARK  245  A    between atoms: _598  and  _599
REMARK  246  A    between atoms: _598  and  _601
REMARK  247  A    between atoms: _601  and  _602
REMARK  248  A    between atoms: _607  and  _608
REMARK                            x       y       z     vdW  Elec       q    Type
REMARK                         _______ _______ _______ _____ _____    ______ ____
ROOT
ATOM      1  O   HOH     1      41.271  26.486  37.569  0.00  0.00    +0.000 OA
ENDROOT
TORSDOF 0
REMARK  Name = ../refined-set-2016/3g2n/3g2n_pocket.pdb
REMARK  248 active torsions:
REMARK  status: ('A' for Active; 'I' for Inactive)
REMARK    1  A    between atoms: _1  and  _3
REMARK    2  A    between atoms: _3  and  _4
REMARK    3  A    between atoms: _3  and  _6
REMARK    4  A    between atoms: _6  and  _7
REMARK    5  A    between atoms: _12  and  _13
REMARK    6  A    between atoms: _15  and  _17
REMARK    7  A    between atoms: _17  and  _18
REMARK    8  A    between atoms: _17  and  _20
REMARK    9  A    between atoms: _20  and  _21
REMARK   10  A    between atoms: _21  and  _22
REMARK   11  A    between atoms: _25  and  _27
REMARK   12  A    between atoms: _27  and  _28
REMARK   13  A    between atoms: _27  and  _30
REMARK   14  A    between atoms: _30  and  _31
REMARK   15  A    between atoms: _36  and  _38
REMARK   16  A    between atoms: _38  and  _39
REMARK   17  A    between atoms: _41  and  _43
REMARK   18  A    between atoms: _43  and  _44
REMARK   19  A    between atoms: _46  and  _48
REMARK   20  A    between atoms: _48  and  _49
REMARK   21  A    between atoms: _48  and  _51
REMARK   22  A    between atoms: _51  and  _52
REMARK   23  A    between atoms: _55  and  _57
REMARK   24  A    between atoms: _57  and  _58
REMARK   25  A    between atoms: _60  and  _62
REMARK   26  A    between atoms: _62  and  _63
REMARK   27  A    between atoms: _62  and  _65
REMARK   28  A    between atoms: _65  and  _66
REMARK   29  A    between atoms: _66  and  _67
REMARK   30  A    between atoms: _67  and  _68
REMARK   31  A    between atoms: _77  and  _79
REMARK   32  A    between atoms: _79  and  _80
REMARK   33  A    between atoms: _79  and  _82
REMARK   34  A    between atoms: _82  and  _83
REMARK   35  A    between atoms: _86  and  _88
REMARK   36  A    between atoms: _88  and  _89
REMARK   37  A    between atoms: _92  and  _94
REMARK   38  A    between atoms: _94  and  _95
REMARK   39  A    between atoms: _94  and  _97
REMARK   40  A    between atoms: _97  and  _98
REMARK   41  A    between atoms: _104  and  _106
REMARK   42  A    between atoms: _106  and  _107
REMARK   43  A    between atoms: _106  and  _109
REMARK   44  A    between atoms: _109  and  _110
REMARK   45  A    between atoms: _115  and  _117
REMARK   46  A    between atoms: _117  and  _118
REMARK   47  A    between atoms: _117  and  _120
REMARK   48  A    between atoms: _120  and  _121
REMARK   49  A    between atoms: _124  and  _126
REMARK   50  A    between atoms: _126  and  _127
REMARK   51  A    between atoms: _126  and  _129
REMARK   52  A    between atoms: _129  and  _130
REMARK   53  A    between atoms: _135  and  _137
REMARK   54  A    between atoms: _137  and  _138
REMARK   55  A    between atoms: _137  and  _140
REMARK   56  A    between atoms: _140  and  _141
REMARK   57  A    between atoms: _147  and  _149
REMARK   58  A    between atoms: _149  and  _150
REMARK   59  A    between atoms: _149  and  _152
REMARK   60  A    between atoms: _152  and  _153
REMARK   61  A    between atoms: _159  and  _161
REMARK   62  A    between atoms: _161  and  _162
REMARK   63  A    between atoms: _161  and  _164
REMARK   64  A    between atoms: _164  and  _165
REMARK   65  A    between atoms: _165  and  _166
REMARK   66  A    between atoms: _166  and  _167
REMARK   67  A    between atoms: _176  and  _178
REMARK   68  A    between atoms: _178  and  _179
REMARK   69  A    between atoms: _178  and  _181
REMARK   70  A    between atoms: _181  and  _182
REMARK   71  A    between atoms: _187  and  _189
REMARK   72  A    between atoms: _189  and  _190
REMARK   73  A    between atoms: _189  and  _192
REMARK   74  A    between atoms: _192  and  _193
REMARK   75  A    between atoms: _196  and  _198
REMARK   76  A    between atoms: _198  and  _199
REMARK   77  A    between atoms: _198  and  _201
REMARK   78  A    between atoms: _201  and  _202
REMARK   79  A    between atoms: _205  and  _207
REMARK   80  A    between atoms: _207  and  _208
REMARK   81  A    between atoms: _207  and  _210
REMARK   82  A    between atoms: _210  and  _211
REMARK   83  A    between atoms: _216  and  _218
REMARK   84  A    between atoms: _218  and  _219
REMARK   85  A    between atoms: _218  and  _221
REMARK   86  A    between atoms: _221  and  _222
REMARK   87  A    between atoms: _227  and  _228
REMARK   88  A    between atoms: _230  and  _232
REMARK   89  A    between atoms: _232  and  _233
REMARK   90  A    between atoms: _232  and  _235
REMARK   91  A    between atoms: _235  and  _236
REMARK   92  A    between atoms: _239  and  _241
REMARK   93  A    between atoms: _241  and  _242
REMARK   94  A    between atoms: _241  and  _244
REMARK   95  A    between atoms: _244  and  _245
REMARK   96  A    between atoms: _250  and  _252
REMARK   97  A    between atoms: _252  and  _253
REMARK   98  A    between atoms: _252  and  _255
REMARK   99  A    between atoms: _255  and  _256
REMARK  100  A    between atoms: _261  and  _263
REMARK  101  A    between atoms: _263  and  _264
REMARK  102  A    between atoms: _263  and  _266
REMARK  103  A    between atoms: _266  and  _267
REMARK  104  A    between atoms: _270  and  _272
REMARK  105  A    between atoms: _272  and  _273
REMARK  106  A    between atoms: _272  and  _275
REMARK  107  A    between atoms: _278  and  _280
REMARK  108  A    between atoms: _280  and  _281
REMARK  109  A    between atoms: _280  and  _283
REMARK  110  A    between atoms: _283  and  _284
REMARK  111  A    between atoms: _287  and  _289
REMARK  112  A    between atoms: _289  and  _290
REMARK  113  A    between atoms: _289  and  _292
REMARK  114  A    between atoms: _292  and  _293
REMARK  115  A    between atoms: _293  and  _294
REMARK  116  A    between atoms: _297  and  _299
REMARK  117  A    between atoms: _299  and  _300
REMARK  118  A    between atoms: _303  and  _305
REMARK  119  A    between atoms: _305  and  _306
REMARK  120  A    between atoms: _305  and  _308
REMARK  121  A    between atoms: _308  and  _309
REMARK  122  A    between atoms: _312  and  _314
REMARK  123  A    between atoms: _314  and  _315
REMARK  124  A    between atoms: _314  and  _317
REMARK  125  A    between atoms: _317  and  _318
REMARK  126  A    between atoms: _318  and  _319
REMARK  127  A    between atoms: _322  and  _324
REMARK  128  A    between atoms: _324  and  _325
REMARK  129  A    between atoms: _324  and  _327
REMARK  130  A    between atoms: _327  and  _328
REMARK  131  A    between atoms: _333  and  _335
REMARK  132  A    between atoms: _335  and  _336
REMARK  133  A    between atoms: _338  and  _340
REMARK  134  A    between atoms: _340  and  _341
REMARK  135  A    between atoms: _340  and  _343
REMARK  136  A    between atoms: _346  and  _348
REMARK  137  A    between atoms: _348  and  _349
REMARK  138  A    between atoms: _352  and  _354
REMARK  139  A    between atoms: _354  and  _355
REMARK  140  A    between atoms: _354  and  _357
REMARK  141  A    between atoms: _357  and  _358
REMARK  142  A    between atoms: _363  and  _365
REMARK  143  A    between atoms: _365  and  _366
REMARK  144  A    between atoms: _365  and  _368
REMARK  145  A    between atoms: _368  and  _369
REMARK  146  A    between atoms: _369  and  _370
REMARK  147  A    between atoms: _370  and  _371
REMARK  148  A    between atoms: _371  and  _372
REMARK  149  A    between atoms: _376  and  _378
REMARK  150  A    between atoms: _378  and  _379
REMARK  151  A    between atoms: _378  and  _381
REMARK  152  A    between atoms: _381  and  _382
REMARK  153  A    between atoms: _385  and  _387
REMARK  154  A    between atoms: _387  and  _388
REMARK  155  A    between atoms: _387  and  _390
REMARK  156  A    between atoms: _390  and  _391
REMARK  157  A    between atoms: _396  and  _398
REMARK  158  A    between atoms: _398  and  _399
REMARK  159  A    between atoms: _401  and  _403
REMARK  160  A    between atoms: _403  and  _404
REMARK  161  A    between atoms: _403  and  _406
REMARK  162  A    between atoms: _406  and  _407
REMARK  163  A    between atoms: _407  and  _408
REMARK  164  A    between atoms: _408  and  _409
REMARK  165  A    between atoms: _409  and  _410
REMARK  166  A    between atoms: _414  and  _416
REMARK  167  A    between atoms: _416  and  _417
REMARK  168  A    between atoms: _416  and  _419
REMARK  169  A    between atoms: _419  and  _420
REMARK  170  A    between atoms: _420  and  _421
REMARK  171  A    between atoms: _421  and  _422
REMARK  172  A    between atoms: _431  and  _433
REMARK  173  A    between atoms: _433  and  _434
REMARK  174  A    between atoms: _433  and  _436
REMARK  175  A    between atoms: _436  and  _437
REMARK  176  A    between atoms: _442  and  _444
REMARK  177  A    between atoms: _444  and  _445
REMARK  178  A    between atoms: _444  and  _447
REMARK  179  A    between atoms: _447  and  _448
REMARK  180  A    between atoms: _453  and  _454
REMARK  181  A    between atoms: _456  and  _458
REMARK  182  A    between atoms: _458  and  _459
REMARK  183  A    between atoms: _458  and  _461
REMARK  184  A    between atoms: _461  and  _462
REMARK  185  A    between atoms: _462  and  _463
REMARK  186  A    between atoms: _463  and  _464
REMARK  187  A    between atoms: _464  and  _465
REMARK  188  A    between atoms: _469  and  _471
REMARK  189  A    between atoms: _471  and  _472
REMARK  190  A    between atoms: _471  and  _474
REMARK  191  A    between atoms: _474  and  _475
REMARK  192  A    between atoms: _477  and  _479
REMARK  193  A    between atoms: _479  and  _480
REMARK  194  A    between atoms: _479  and  _482
REMARK  195  A    between atoms: _482  and  _483
REMARK  196  A    between atoms: _486  and  _488
REMARK  197  A    between atoms: _488  and  _489
REMARK  198  A    between atoms: _488  and  _491
REMARK  199  A    between atoms: _491  and  _492
REMARK  200  A    between atoms: _492  and  _493
REMARK  201  A    between atoms: _496  and  _498
REMARK  202  A    between atoms: _498  and  _499
REMARK  203  A    between atoms: _502  and  _504
REMARK  204  A    between atoms: _504  and  _505
REMARK  205  A    between atoms: _504  and  _507
REMARK  206  A    between atoms: _507  and  _508
REMARK  207  A    between atoms: _510  and  _512
REMARK  208  A    between atoms: _512  and  _513
REMARK  209  A    between atoms: _515  and  _517
REMARK  210  A    between atoms: _517  and  _518
REMARK  211  A    between atoms: _517  and  _520
REMARK  212  A    between atoms: _520  and  _521
REMARK  213  A    between atoms: _524  and  _526
REMARK  214  A    between atoms: _526  and  _527
REMARK  215  A    between atoms: _529  and  _531
REMARK  216  A    between atoms: _531  and  _532
REMARK  217  A    between atoms: _531  and  _534
REMARK  218  A    between atoms: _534  and  _535
REMARK  219  A    between atoms: _540  and  _542
REMARK  220  A    between atoms: _542  and  _543
REMARK  221  A    between atoms: _542  and  _545
REMARK  222  A    between atoms: _545  and  _546
REMARK  223  A    between atoms: _546  and  _547
REMARK  224  A    between atoms: _554  and  _555
REMARK  225  A    between atoms: _555  and  _571
REMARK  226  A    between atoms: _556  and  _558
REMARK  227  A    between atoms: _558  and  _559
REMARK  228  A    between atoms: _559  and  _560
REMARK  229  A    between atoms: _564  and  _566
REMARK  230  A    between atoms: _566  and  _567
REMARK  231  A    between atoms: _566  and  _574
REMARK  232  A    between atoms: _567  and  _568
REMARK  233  A    between atoms: _568  and  _569
REMARK  234  A    between atoms: _569  and  _570
REMARK  235  A    between atoms: _570  and  _571
REMARK  236  A    between atoms: _576  and  _578
REMARK  237  A    between atoms: _578  and  _579
REMARK  238  A    between atoms: _578  and  _581
REMARK  239  A    between atoms: _581  and  _582
REMARK  240  A    between atoms: _585  and  _587
REMARK  241  A    between atoms: _587  and  _588
REMARK  242  A    between atoms: _590  and  _592
REMARK  243  A    between atoms: _592  and  _593
REMARK  244  A    between atoms: _596  and  _598
REMARK  245  A    between atoms: _598  and  _599
REMARK  246  A    between atoms: _598  and  _601
REMARK  247  A    between atoms: _601  and  _602
REMARK  248  A    between atoms: _607  and  _608
REMARK                            x       y       z     vdW  Elec       q    Type
REMARK                         _______ _______ _______ _____ _____    ______ ____
ROOT
ATOM      1  O   HOH     1      36.778  22.279  18.043  0.00  0.00    +0.000 OA
ENDROOT
TORSDOF 0
REMARK  Name = ../refined-set-2016/3g2n/3g2n_pocket.pdb
REMARK  248 active torsions:
REMARK  status: ('A' for Active; 'I' for Inactive)
REMARK    1  A    between atoms: _1  and  _3
REMARK    2  A    between atoms: _3  and  _4
REMARK    3  A    between atoms: _3  and  _6
REMARK    4  A    between atoms: _6  and  _7
REMARK    5  A    between atoms: _12  and  _13
REMARK    6  A    between atoms: _15  and  _17
REMARK    7  A    between atoms: _17  and  _18
REMARK    8  A    between atoms: _17  and  _20
REMARK    9  A    between atoms: _20  and  _21
REMARK   10  A    between atoms: _21  and  _22
REMARK   11  A    between atoms: _25  and  _27
REMARK   12  A    between atoms: _27  and  _28
REMARK   13  A    between atoms: _27  and  _30
REMARK   14  A    between atoms: _30  and  _31
REMARK   15  A    between atoms: _36  and  _38
REMARK   16  A    between atoms: _38  and  _39
REMARK   17  A    between atoms: _41  and  _43
REMARK   18  A    between atoms: _43  and  _44
REMARK   19  A    between atoms: _46  and  _48
REMARK   20  A    between atoms: _48  and  _49
REMARK   21  A    between atoms: _48  and  _51
REMARK   22  A    between atoms: _51  and  _52
REMARK   23  A    between atoms: _55  and  _57
REMARK   24  A    between atoms: _57  and  _58
REMARK   25  A    between atoms: _60  and  _62
REMARK   26  A    between atoms: _62  and  _63
REMARK   27  A    between atoms: _62  and  _65
REMARK   28  A    between atoms: _65  and  _66
REMARK   29  A    between atoms: _66  and  _67
REMARK   30  A    between atoms: _67  and  _68
REMARK   31  A    between atoms: _77  and  _79
REMARK   32  A    between atoms: _79  and  _80
REMARK   33  A    between atoms: _79  and  _82
REMARK   34  A    between atoms: _82  and  _83
REMARK   35  A    between atoms: _86  and  _88
REMARK   36  A    between atoms: _88  and  _89
REMARK   37  A    between atoms: _92  and  _94
REMARK   38  A    between atoms: _94  and  _95
REMARK   39  A    between atoms: _94  and  _97
REMARK   40  A    between atoms: _97  and  _98
REMARK   41  A    between atoms: _104  and  _106
REMARK   42  A    between atoms: _106  and  _107
REMARK   43  A    between atoms: _106  and  _109
REMARK   44  A    between atoms: _109  and  _110
REMARK   45  A    between atoms: _115  and  _117
REMARK   46  A    between atoms: _117  and  _118
REMARK   47  A    between atoms: _117  and  _120
REMARK   48  A    between atoms: _120  and  _121
REMARK   49  A    between atoms: _124  and  _126
REMARK   50  A    between atoms: _126  and  _127
REMARK   51  A    between atoms: _126  and  _129
REMARK   52  A    between atoms: _129  and  _130
REMARK   53  A    between atoms: _135  and  _137
REMARK   54  A    between atoms: _137  and  _138
REMARK   55  A    between atoms: _137  and  _140
REMARK   56  A    between atoms: _140  and  _141
REMARK   57  A    between atoms: _147  and  _149
REMARK   58  A    between atoms: _149  and  _150
REMARK   59  A    between atoms: _149  and  _152
REMARK   60  A    between atoms: _152  and  _153
REMARK   61  A    between atoms: _159  and  _161
REMARK   62  A    between atoms: _161  and  _162
REMARK   63  A    between atoms: _161  and  _164
REMARK   64  A    between atoms: _164  and  _165
REMARK   65  A    between atoms: _165  and  _166
REMARK   66  A    between atoms: _166  and  _167
REMARK   67  A    between atoms: _176  and  _178
REMARK   68  A    between atoms: _178  and  _179
REMARK   69  A    between atoms: _178  and  _181
REMARK   70  A    between atoms: _181  and  _182
REMARK   71  A    between atoms: _187  and  _189
REMARK   72  A    between atoms: _189  and  _190
REMARK   73  A    between atoms: _189  and  _192
REMARK   74  A    between atoms: _192  and  _193
REMARK   75  A    between atoms: _196  and  _198
REMARK   76  A    between atoms: _198  and  _199
REMARK   77  A    between atoms: _198  and  _201
REMARK   78  A    between atoms: _201  and  _202
REMARK   79  A    between atoms: _205  and  _207
REMARK   80  A    between atoms: _207  and  _208
REMARK   81  A    between atoms: _207  and  _210
REMARK   82  A    between atoms: _210  and  _211
REMARK   83  A    between atoms: _216  and  _218
REMARK   84  A    between atoms: _218  and  _219
REMARK   85  A    between atoms: _218  and  _221
REMARK   86  A    between atoms: _221  and  _222
REMARK   87  A    between atoms: _227  and  _228
REMARK   88  A    between atoms: _230  and  _232
REMARK   89  A    between atoms: _232  and  _233
REMARK   90  A    between atoms: _232  and  _235
REMARK   91  A    between atoms: _235  and  _236
REMARK   92  A    between atoms: _239  and  _241
REMARK   93  A    between atoms: _241  and  _242
REMARK   94  A    between atoms: _241  and  _244
REMARK   95  A    between atoms: _244  and  _245
REMARK   96  A    between atoms: _250  and  _252
REMARK   97  A    between atoms: _252  and  _253
REMARK   98  A    between atoms: _252  and  _255
REMARK   99  A    between atoms: _255  and  _256
REMARK  100  A    between atoms: _261  and  _263
REMARK  101  A    between atoms: _263  and  _264
REMARK  102  A    between atoms: _263  and  _266
REMARK  103  A    between atoms: _266  and  _267
REMARK  104  A    between atoms: _270  and  _272
REMARK  105  A    between atoms: _272  and  _273
REMARK  106  A    between atoms: _272  and  _275
REMARK  107  A    between atoms: _278  and  _280
REMARK  108  A    between atoms: _280  and  _281
REMARK  109  A    between atoms: _280  and  _283
REMARK  110  A    between atoms: _283  and  _284
REMARK  111  A    between atoms: _287  and  _289
REMARK  112  A    between atoms: _289  and  _290
REMARK  113  A    between atoms: _289  and  _292
REMARK  114  A    between atoms: _292  and  _293
REMARK  115  A    between atoms: _293  and  _294
REMARK  116  A    between atoms: _297  and  _299
REMARK  117  A    between atoms: _299  and  _300
REMARK  118  A    between atoms: _303  and  _305
REMARK  119  A    between atoms: _305  and  _306
REMARK  120  A    between atoms: _305  and  _308
REMARK  121  A    between atoms: _308  and  _309
REMARK  122  A    between atoms: _312  and  _314
REMARK  123  A    between atoms: _314  and  _315
REMARK  124  A    between atoms: _314  and  _317
REMARK  125  A    between atoms: _317  and  _318
REMARK  126  A    between atoms: _318  and  _319
REMARK  127  A    between atoms: _322  and  _324
REMARK  128  A    between atoms: _324  and  _325
REMARK  129  A    between atoms: _324  and  _327
REMARK  130  A    between atoms: _327  and  _328
REMARK  131  A    between atoms: _333  and  _335
REMARK  132  A    between atoms: _335  and  _336
REMARK  133  A    between atoms: _338  and  _340
REMARK  134  A    between atoms: _340  and  _341
REMARK  135  A    between atoms: _340  and  _343
REMARK  136  A    between atoms: _346  and  _348
REMARK  137  A    between atoms: _348  and  _349
REMARK  138  A    between atoms: _352  and  _354
REMARK  139  A    between atoms: _354  and  _355
REMARK  140  A    between atoms: _354  and  _357
REMARK  141  A    between atoms: _357  and  _358
REMARK  142  A    between atoms: _363  and  _365
REMARK  143  A    between atoms: _365  and  _366
REMARK  144  A    between atoms: _365  and  _368
REMARK  145  A    between atoms: _368  and  _369
REMARK  146  A    between atoms: _369  and  _370
REMARK  147  A    between atoms: _370  and  _371
REMARK  148  A    between atoms: _371  and  _372
REMARK  149  A    between atoms: _376  and  _378
REMARK  150  A    between atoms: _378  and  _379
REMARK  151  A    between atoms: _378  and  _381
REMARK  152  A    between atoms: _381  and  _382
REMARK  153  A    between atoms: _385  and  _387
REMARK  154  A    between atoms: _387  and  _388
REMARK  155  A    between atoms: _387  and  _390
REMARK  156  A    between atoms: _390  and  _391
REMARK  157  A    between atoms: _396  and  _398
REMARK  158  A    between atoms: _398  and  _399
REMARK  159  A    between atoms: _401  and  _403
REMARK  160  A    between atoms: _403  and  _404
REMARK  161  A    between atoms: _403  and  _406
REMARK  162  A    between atoms: _406  and  _407
REMARK  163  A    between atoms: _407  and  _408
REMARK  164  A    between atoms: _408  and  _409
REMARK  165  A    between atoms: _409  and  _410
REMARK  166  A    between atoms: _414  and  _416
REMARK  167  A    between atoms: _416  and  _417
REMARK  168  A    between atoms: _416  and  _419
REMARK  169  A    between atoms: _419  and  _420
REMARK  170  A    between atoms: _420  and  _421
REMARK  171  A    between atoms: _421  and  _422
REMARK  172  A    between atoms: _431  and  _433
REMARK  173  A    between atoms: _433  and  _434
REMARK  174  A    between atoms: _433  and  _436
REMARK  175  A    between atoms: _436  and  _437
REMARK  176  A    between atoms: _442  and  _444
REMARK  177  A    between atoms: _444  and  _445
REMARK  178  A    between atoms: _444  and  _447
REMARK  179  A    between atoms: _447  and  _448
REMARK  180  A    between atoms: _453  and  _454
REMARK  181  A    between atoms: _456  and  _458
REMARK  182  A    between atoms: _458  and  _459
REMARK  183  A    between atoms: _458  and  _461
REMARK  184  A    between atoms: _461  and  _462
REMARK  185  A    between atoms: _462  and  _463
REMARK  186  A    between atoms: _463  and  _464
REMARK  187  A    between atoms: _464  and  _465
REMARK  188  A    between atoms: _469  and  _471
REMARK  189  A    between atoms: _471  and  _472
REMARK  190  A    between atoms: _471  and  _474
REMARK  191  A    between atoms: _474  and  _475
REMARK  192  A    between atoms: _477  and  _479
REMARK  193  A    between atoms: _479  and  _480
REMARK  194  A    between atoms: _479  and  _482
REMARK  195  A    between atoms: _482  and  _483
REMARK  196  A    between atoms: _486  and  _488
REMARK  197  A    between atoms: _488  and  _489
REMARK  198  A    between atoms: _488  and  _491
REMARK  199  A    between atoms: _491  and  _492
REMARK  200  A    between atoms: _492  and  _493
REMARK  201  A    between atoms: _496  and  _498
REMARK  202  A    between atoms: _498  and  _499
REMARK  203  A    between atoms: _502  and  _504
REMARK  204  A    between atoms: _504  and  _505
REMARK  205  A    between atoms: _504  and  _507
REMARK  206  A    between atoms: _507  and  _508
REMARK  207  A    between atoms: _510  and  _512
REMARK  208  A    between atoms: _512  and  _513
REMARK  209  A    between atoms: _515  and  _517
REMARK  210  A    between atoms: _517  and  _518
REMARK  211  A    between atoms: _517  and  _520
REMARK  212  A    between atoms: _520  and  _521
REMARK  213  A    between atoms: _524  and  _526
REMARK  214  A    between atoms: _526  and  _527
REMARK  215  A    between atoms: _529  and  _531
REMARK  216  A    between atoms: _531  and  _532
REMARK  217  A    between atoms: _531  and  _534
REMARK  218  A    between atoms: _534  and  _535
REMARK  219  A    between atoms: _540  and  _542
REMARK  220  A    between atoms: _542  and  _543
REMARK  221  A    between atoms: _542  and  _545
REMARK  222  A    between atoms: _545  and  _546
REMARK  223  A    between atoms: _546  and  _547
REMARK  224  A    between atoms: _554  and  _555
REMARK  225  A    between atoms: _555  and  _571
REMARK  226  A    between atoms: _556  and  _558
REMARK  227  A    between atoms: _558  and  _559
REMARK  228  A    between atoms: _559  and  _560
REMARK  229  A    between atoms: _564  and  _566
REMARK  230  A    between atoms: _566  and  _567
REMARK  231  A    between atoms: _566  and  _574
REMARK  232  A    between atoms: _567  and  _568
REMARK  233  A    between atoms: _568  and  _569
REMARK  234  A    between atoms: _569  and  _570
REMARK  235  A    between atoms: _570  and  _571
REMARK  236  A    between atoms: _576  and  _578
REMARK  237  A    between atoms: _578  and  _579
REMARK  238  A    between atoms: _578  and  _581
REMARK  239  A    between atoms: _581  and  _582
REMARK  240  A    between atoms: _585  and  _587
REMARK  241  A    between atoms: _587  and  _588
REMARK  242  A    between atoms: _590  and  _592
REMARK  243  A    between atoms: _592  and  _593
REMARK  244  A    between atoms: _596  and  _598
REMARK  245  A    between atoms: _598  and  _599
REMARK  246  A    between atoms: _598  and  _601
REMARK  247  A    between atoms: _601  and  _602
REMARK  248  A    between atoms: _607  and  _608
REMARK                            x       y       z     vdW  Elec       q    Type
REMARK                         _______ _______ _______ _____ _____    ______ ____
ROOT
ATOM      1  O   HOH     1      29.647  26.013  18.119  0.00  0.00    +0.000 OA
ENDROOT
TORSDOF 0
REMARK  Name = ../refined-set-2016/3g2n/3g2n_pocket.pdb
REMARK  248 active torsions:
REMARK  status: ('A' for Active; 'I' for Inactive)
REMARK    1  A    between atoms: _1  and  _3
REMARK    2  A    between atoms: _3  and  _4
REMARK    3  A    between atoms: _3  and  _6
REMARK    4  A    between atoms: _6  and  _7
REMARK    5  A    between atoms: _12  and  _13
REMARK    6  A    between atoms: _15  and  _17
REMARK    7  A    between atoms: _17  and  _18
REMARK    8  A    between atoms: _17  and  _20
REMARK    9  A    between atoms: _20  and  _21
REMARK   10  A    between atoms: _21  and  _22
REMARK   11  A    between atoms: _25  and  _27
REMARK   12  A    between atoms: _27  and  _28
REMARK   13  A    between atoms: _27  and  _30
REMARK   14  A    between atoms: _30  and  _31
REMARK   15  A    between atoms: _36  and  _38
REMARK   16  A    between atoms: _38  and  _39
REMARK   17  A    between atoms: _41  and  _43
REMARK   18  A    between atoms: _43  and  _44
REMARK   19  A    between atoms: _46  and  _48
REMARK   20  A    between atoms: _48  and  _49
REMARK   21  A    between atoms: _48  and  _51
REMARK   22  A    between atoms: _51  and  _52
REMARK   23  A    between atoms: _55  and  _57
REMARK   24  A    between atoms: _57  and  _58
REMARK   25  A    between atoms: _60  and  _62
REMARK   26  A    between atoms: _62  and  _63
REMARK   27  A    between atoms: _62  and  _65
REMARK   28  A    between atoms: _65  and  _66
REMARK   29  A    between atoms: _66  and  _67
REMARK   30  A    between atoms: _67  and  _68
REMARK   31  A    between atoms: _77  and  _79
REMARK   32  A    between atoms: _79  and  _80
REMARK   33  A    between atoms: _79  and  _82
REMARK   34  A    between atoms: _82  and  _83
REMARK   35  A    between atoms: _86  and  _88
REMARK   36  A    between atoms: _88  and  _89
REMARK   37  A    between atoms: _92  and  _94
REMARK   38  A    between atoms: _94  and  _95
REMARK   39  A    between atoms: _94  and  _97
REMARK   40  A    between atoms: _97  and  _98
REMARK   41  A    between atoms: _104  and  _106
REMARK   42  A    between atoms: _106  and  _107
REMARK   43  A    between atoms: _106  and  _109
REMARK   44  A    between atoms: _109  and  _110
REMARK   45  A    between atoms: _115  and  _117
REMARK   46  A    between atoms: _117  and  _118
REMARK   47  A    between atoms: _117  and  _120
REMARK   48  A    between atoms: _120  and  _121
REMARK   49  A    between atoms: _124  and  _126
REMARK   50  A    between atoms: _126  and  _127
REMARK   51  A    between atoms: _126  and  _129
REMARK   52  A    between atoms: _129  and  _130
REMARK   53  A    between atoms: _135  and  _137
REMARK   54  A    between atoms: _137  and  _138
REMARK   55  A    between atoms: _137  and  _140
REMARK   56  A    between atoms: _140  and  _141
REMARK   57  A    between atoms: _147  and  _149
REMARK   58  A    between atoms: _149  and  _150
REMARK   59  A    between atoms: _149  and  _152
REMARK   60  A    between atoms: _152  and  _153
REMARK   61  A    between atoms: _159  and  _161
REMARK   62  A    between atoms: _161  and  _162
REMARK   63  A    between atoms: _161  and  _164
REMARK   64  A    between atoms: _164  and  _165
REMARK   65  A    between atoms: _165  and  _166
REMARK   66  A    between atoms: _166  and  _167
REMARK   67  A    between atoms: _176  and  _178
REMARK   68  A    between atoms: _178  and  _179
REMARK   69  A    between atoms: _178  and  _181
REMARK   70  A    between atoms: _181  and  _182
REMARK   71  A    between atoms: _187  and  _189
REMARK   72  A    between atoms: _189  and  _190
REMARK   73  A    between atoms: _189  and  _192
REMARK   74  A    between atoms: _192  and  _193
REMARK   75  A    between atoms: _196  and  _198
REMARK   76  A    between atoms: _198  and  _199
REMARK   77  A    between atoms: _198  and  _201
REMARK   78  A    between atoms: _201  and  _202
REMARK   79  A    between atoms: _205  and  _207
REMARK   80  A    between atoms: _207  and  _208
REMARK   81  A    between atoms: _207  and  _210
REMARK   82  A    between atoms: _210  and  _211
REMARK   83  A    between atoms: _216  and  _218
REMARK   84  A    between atoms: _218  and  _219
REMARK   85  A    between atoms: _218  and  _221
REMARK   86  A    between atoms: _221  and  _222
REMARK   87  A    between atoms: _227  and  _228
REMARK   88  A    between atoms: _230  and  _232
REMARK   89  A    between atoms: _232  and  _233
REMARK   90  A    between atoms: _232  and  _235
REMARK   91  A    between atoms: _235  and  _236
REMARK   92  A    between atoms: _239  and  _241
REMARK   93  A    between atoms: _241  and  _242
REMARK   94  A    between atoms: _241  and  _244
REMARK   95  A    between atoms: _244  and  _245
REMARK   96  A    between atoms: _250  and  _252
REMARK   97  A    between atoms: _252  and  _253
REMARK   98  A    between atoms: _252  and  _255
REMARK   99  A    between atoms: _255  and  _256
REMARK  100  A    between atoms: _261  and  _263
REMARK  101  A    between atoms: _263  and  _264
REMARK  102  A    between atoms: _263  and  _266
REMARK  103  A    between atoms: _266  and  _267
REMARK  104  A    between atoms: _270  and  _272
REMARK  105  A    between atoms: _272  and  _273
REMARK  106  A    between atoms: _272  and  _275
REMARK  107  A    between atoms: _278  and  _280
REMARK  108  A    between atoms: _280  and  _281
REMARK  109  A    between atoms: _280  and  _283
REMARK  110  A    between atoms: _283  and  _284
REMARK  111  A    between atoms: _287  and  _289
REMARK  112  A    between atoms: _289  and  _290
REMARK  113  A    between atoms: _289  and  _292
REMARK  114  A    between atoms: _292  and  _293
REMARK  115  A    between atoms: _293  and  _294
REMARK  116  A    between atoms: _297  and  _299
REMARK  117  A    between atoms: _299  and  _300
REMARK  118  A    between atoms: _303  and  _305
REMARK  119  A    between atoms: _305  and  _306
REMARK  120  A    between atoms: _305  and  _308
REMARK  121  A    between atoms: _308  and  _309
REMARK  122  A    between atoms: _312  and  _314
REMARK  123  A    between atoms: _314  and  _315
REMARK  124  A    between atoms: _314  and  _317
REMARK  125  A    between atoms: _317  and  _318
REMARK  126  A    between atoms: _318  and  _319
REMARK  127  A    between atoms: _322  and  _324
REMARK  128  A    between atoms: _324  and  _325
REMARK  129  A    between atoms: _324  and  _327
REMARK  130  A    between atoms: _327  and  _328
REMARK  131  A    between atoms: _333  and  _335
REMARK  132  A    between atoms: _335  and  _336
REMARK  133  A    between atoms: _338  and  _340
REMARK  134  A    between atoms: _340  and  _341
REMARK  135  A    between atoms: _340  and  _343
REMARK  136  A    between atoms: _346  and  _348
REMARK  137  A    between atoms: _348  and  _349
REMARK  138  A    between atoms: _352  and  _354
REMARK  139  A    between atoms: _354  and  _355
REMARK  140  A    between atoms: _354  and  _357
REMARK  141  A    between atoms: _357  and  _358
REMARK  142  A    between atoms: _363  and  _365
REMARK  143  A    between atoms: _365  and  _366
REMARK  144  A    between atoms: _365  and  _368
REMARK  145  A    between atoms: _368  and  _369
REMARK  146  A    between atoms: _369  and  _370
REMARK  147  A    between atoms: _370  and  _371
REMARK  148  A    between atoms: _371  and  _372
REMARK  149  A    between atoms: _376  and  _378
REMARK  150  A    between atoms: _378  and  _379
REMARK  151  A    between atoms: _378  and  _381
REMARK  152  A    between atoms: _381  and  _382
REMARK  153  A    between atoms: _385  and  _387
REMARK  154  A    between atoms: _387  and  _388
REMARK  155  A    between atoms: _387  and  _390
REMARK  156  A    between atoms: _390  and  _391
REMARK  157  A    between atoms: _396  and  _398
REMARK  158  A    between atoms: _398  and  _399
REMARK  159  A    between atoms: _401  and  _403
REMARK  160  A    between atoms: _403  and  _404
REMARK  161  A    between atoms: _403  and  _406
REMARK  162  A    between atoms: _406  and  _407
REMARK  163  A    between atoms: _407  and  _408
REMARK  164  A    between atoms: _408  and  _409
REMARK  165  A    between atoms: _409  and  _410
REMARK  166  A    between atoms: _414  and  _416
REMARK  167  A    between atoms: _416  and  _417
REMARK  168  A    between atoms: _416  and  _419
REMARK  169  A    between atoms: _419  and  _420
REMARK  170  A    between atoms: _420  and  _421
REMARK  171  A    between atoms: _421  and  _422
REMARK  172  A    between atoms: _431  and  _433
REMARK  173  A    between atoms: _433  and  _434
REMARK  174  A    between atoms: _433  and  _436
REMARK  175  A    between atoms: _436  and  _437
REMARK  176  A    between atoms: _442  and  _444
REMARK  177  A    between atoms: _444  and  _445
REMARK  178  A    between atoms: _444  and  _447
REMARK  179  A    between atoms: _447  and  _448
REMARK  180  A    between atoms: _453  and  _454
REMARK  181  A    between atoms: _456  and  _458
REMARK  182  A    between atoms: _458  and  _459
REMARK  183  A    between atoms: _458  and  _461
REMARK  184  A    between atoms: _461  and  _462
REMARK  185  A    between atoms: _462  and  _463
REMARK  186  A    between atoms: _463  and  _464
REMARK  187  A    between atoms: _464  and  _465
REMARK  188  A    between atoms: _469  and  _471
REMARK  189  A    between atoms: _471  and  _472
REMARK  190  A    between atoms: _471  and  _474
REMARK  191  A    between atoms: _474  and  _475
REMARK  192  A    between atoms: _477  and  _479
REMARK  193  A    between atoms: _479  and  _480
REMARK  194  A    between atoms: _479  and  _482
REMARK  195  A    between atoms: _482  and  _483
REMARK  196  A    between atoms: _486  and  _488
REMARK  197  A    between atoms: _488  and  _489
REMARK  198  A    between atoms: _488  and  _491
REMARK  199  A    between atoms: _491  and  _492
REMARK  200  A    between atoms: _492  and  _493
REMARK  201  A    between atoms: _496  and  _498
REMARK  202  A    between atoms: _498  and  _499
REMARK  203  A    between atoms: _502  and  _504
REMARK  204  A    between atoms: _504  and  _505
REMARK  205  A    between atoms: _504  and  _507
REMARK  206  A    between atoms: _507  and  _508
REMARK  207  A    between atoms: _510  and  _512
REMARK  208  A    between atoms: _512  and  _513
REMARK  209  A    between atoms: _515  and  _517
REMARK  210  A    between atoms: _517  and  _518
REMARK  211  A    between atoms: _517  and  _520
REMARK  212  A    between atoms: _520  and  _521
REMARK  213  A    between atoms: _524  and  _526
REMARK  214  A    between atoms: _526  and  _527
REMARK  215  A    between atoms: _529  and  _531
REMARK  216  A    between atoms: _531  and  _532
REMARK  217  A    between atoms: _531  and  _534
REMARK  218  A    between atoms: _534  and  _535
REMARK  219  A    between atoms: _540  and  _542
REMARK  220  A    between atoms: _542  and  _543
REMARK  221  A    between atoms: _542  and  _545
REMARK  222  A    between atoms: _545  and  _546
REMARK  223  A    between atoms: _546  and  _547
REMARK  224  A    between atoms: _554  and  _555
REMARK  225  A    between atoms: _555  and  _571
REMARK  226  A    between atoms: _556  and  _558
REMARK  227  A    between atoms: _558  and  _559
REMARK  228  A    between atoms: _559  and  _560
REMARK  229  A    between atoms: _564  and  _566
REMARK  230  A    between atoms: _566  and  _567
REMARK  231  A    between atoms: _566  and  _574
REMARK  232  A    between atoms: _567  and  _568
REMARK  233  A    between atoms: _568  and  _569
REMARK  234  A    between atoms: _569  and  _570
REMARK  235  A    between atoms: _570  and  _571
REMARK  236  A    between atoms: _576  and  _578
REMARK  237  A    between atoms: _578  and  _579
REMARK  238  A    between atoms: _578  and  _581
REMARK  239  A    between atoms: _581  and  _582
REMARK  240  A    between atoms: _585  and  _587
REMARK  241  A    between atoms: _587  and  _588
REMARK  242  A    between atoms: _590  and  _592
REMARK  243  A    between atoms: _592  and  _593
REMARK  244  A    between atoms: _596  and  _598
REMARK  245  A    between atoms: _598  and  _599
REMARK  246  A    between atoms: _598  and  _601
REMARK  247  A    between atoms: _601  and  _602
REMARK  248  A    between atoms: _607  and  _608
REMARK                            x       y       z     vdW  Elec       q    Type
REMARK                         _______ _______ _______ _____ _____    ______ ____
ROOT
ATOM      1  O   HOH     1      30.146  23.161  18.595  0.00  0.00    +0.000 OA
ENDROOT
TORSDOF 0
REMARK  Name = ../refined-set-2016/3g2n/3g2n_pocket.pdb
REMARK  248 active torsions:
REMARK  status: ('A' for Active; 'I' for Inactive)
REMARK    1  A    between atoms: _1  and  _3
REMARK    2  A    between atoms: _3  and  _4
REMARK    3  A    between atoms: _3  and  _6
REMARK    4  A    between atoms: _6  and  _7
REMARK    5  A    between atoms: _12  and  _13
REMARK    6  A    between atoms: _15  and  _17
REMARK    7  A    between atoms: _17  and  _18
REMARK    8  A    between atoms: _17  and  _20
REMARK    9  A    between atoms: _20  and  _21
REMARK   10  A    between atoms: _21  and  _22
REMARK   11  A    between atoms: _25  and  _27
REMARK   12  A    between atoms: _27  and  _28
REMARK   13  A    between atoms: _27  and  _30
REMARK   14  A    between atoms: _30  and  _31
REMARK   15  A    between atoms: _36  and  _38
REMARK   16  A    between atoms: _38  and  _39
REMARK   17  A    between atoms: _41  and  _43
REMARK   18  A    between atoms: _43  and  _44
REMARK   19  A    between atoms: _46  and  _48
REMARK   20  A    between atoms: _48  and  _49
REMARK   21  A    between atoms: _48  and  _51
REMARK   22  A    between atoms: _51  and  _52
REMARK   23  A    between atoms: _55  and  _57
REMARK   24  A    between atoms: _57  and  _58
REMARK   25  A    between atoms: _60  and  _62
REMARK   26  A    between atoms: _62  and  _63
REMARK   27  A    between atoms: _62  and  _65
REMARK   28  A    between atoms: _65  and  _66
REMARK   29  A    between atoms: _66  and  _67
REMARK   30  A    between atoms: _67  and  _68
REMARK   31  A    between atoms: _77  and  _79
REMARK   32  A    between atoms: _79  and  _80
REMARK   33  A    between atoms: _79  and  _82
REMARK   34  A    between atoms: _82  and  _83
REMARK   35  A    between atoms: _86  and  _88
REMARK   36  A    between atoms: _88  and  _89
REMARK   37  A    between atoms: _92  and  _94
REMARK   38  A    between atoms: _94  and  _95
REMARK   39  A    between atoms: _94  and  _97
REMARK   40  A    between atoms: _97  and  _98
REMARK   41  A    between atoms: _104  and  _106
REMARK   42  A    between atoms: _106  and  _107
REMARK   43  A    between atoms: _106  and  _109
REMARK   44  A    between atoms: _109  and  _110
REMARK   45  A    between atoms: _115  and  _117
REMARK   46  A    between atoms: _117  and  _118
REMARK   47  A    between atoms: _117  and  _120
REMARK   48  A    between atoms: _120  and  _121
REMARK   49  A    between atoms: _124  and  _126
REMARK   50  A    between atoms: _126  and  _127
REMARK   51  A    between atoms: _126  and  _129
REMARK   52  A    between atoms: _129  and  _130
REMARK   53  A    between atoms: _135  and  _137
REMARK   54  A    between atoms: _137  and  _138
REMARK   55  A    between atoms: _137  and  _140
REMARK   56  A    between atoms: _140  and  _141
REMARK   57  A    between atoms: _147  and  _149
REMARK   58  A    between atoms: _149  and  _150
REMARK   59  A    between atoms: _149  and  _152
REMARK   60  A    between atoms: _152  and  _153
REMARK   61  A    between atoms: _159  and  _161
REMARK   62  A    between atoms: _161  and  _162
REMARK   63  A    between atoms: _161  and  _164
REMARK   64  A    between atoms: _164  and  _165
REMARK   65  A    between atoms: _165  and  _166
REMARK   66  A    between atoms: _166  and  _167
REMARK   67  A    between atoms: _176  and  _178
REMARK   68  A    between atoms: _178  and  _179
REMARK   69  A    between atoms: _178  and  _181
REMARK   70  A    between atoms: _181  and  _182
REMARK   71  A    between atoms: _187  and  _189
REMARK   72  A    between atoms: _189  and  _190
REMARK   73  A    between atoms: _189  and  _192
REMARK   74  A    between atoms: _192  and  _193
REMARK   75  A    between atoms: _196  and  _198
REMARK   76  A    between atoms: _198  and  _199
REMARK   77  A    between atoms: _198  and  _201
REMARK   78  A    between atoms: _201  and  _202
REMARK   79  A    between atoms: _205  and  _207
REMARK   80  A    between atoms: _207  and  _208
REMARK   81  A    between atoms: _207  and  _210
REMARK   82  A    between atoms: _210  and  _211
REMARK   83  A    between atoms: _216  and  _218
REMARK   84  A    between atoms: _218  and  _219
REMARK   85  A    between atoms: _218  and  _221
REMARK   86  A    between atoms: _221  and  _222
REMARK   87  A    between atoms: _227  and  _228
REMARK   88  A    between atoms: _230  and  _232
REMARK   89  A    between atoms: _232  and  _233
REMARK   90  A    between atoms: _232  and  _235
REMARK   91  A    between atoms: _235  and  _236
REMARK   92  A    between atoms: _239  and  _241
REMARK   93  A    between atoms: _241  and  _242
REMARK   94  A    between atoms: _241  and  _244
REMARK   95  A    between atoms: _244  and  _245
REMARK   96  A    between atoms: _250  and  _252
REMARK   97  A    between atoms: _252  and  _253
REMARK   98  A    between atoms: _252  and  _255
REMARK   99  A    between atoms: _255  and  _256
REMARK  100  A    between atoms: _261  and  _263
REMARK  101  A    between atoms: _263  and  _264
REMARK  102  A    between atoms: _263  and  _266
REMARK  103  A    between atoms: _266  and  _267
REMARK  104  A    between atoms: _270  and  _272
REMARK  105  A    between atoms: _272  and  _273
REMARK  106  A    between atoms: _272  and  _275
REMARK  107  A    between atoms: _278  and  _280
REMARK  108  A    between atoms: _280  and  _281
REMARK  109  A    between atoms: _280  and  _283
REMARK  110  A    between atoms: _283  and  _284
REMARK  111  A    between atoms: _287  and  _289
REMARK  112  A    between atoms: _289  and  _290
REMARK  113  A    between atoms: _289  and  _292
REMARK  114  A    between atoms: _292  and  _293
REMARK  115  A    between atoms: _293  and  _294
REMARK  116  A    between atoms: _297  and  _299
REMARK  117  A    between atoms: _299  and  _300
REMARK  118  A    between atoms: _303  and  _305
REMARK  119  A    between atoms: _305  and  _306
REMARK  120  A    between atoms: _305  and  _308
REMARK  121  A    between atoms: _308  and  _309
REMARK  122  A    between atoms: _312  and  _314
REMARK  123  A    between atoms: _314  and  _315
REMARK  124  A    between atoms: _314  and  _317
REMARK  125  A    between atoms: _317  and  _318
REMARK  126  A    between atoms: _318  and  _319
REMARK  127  A    between atoms: _322  and  _324
REMARK  128  A    between atoms: _324  and  _325
REMARK  129  A    between atoms: _324  and  _327
REMARK  130  A    between atoms: _327  and  _328
REMARK  131  A    between atoms: _333  and  _335
REMARK  132  A    between atoms: _335  and  _336
REMARK  133  A    between atoms: _338  and  _340
REMARK  134  A    between atoms: _340  and  _341
REMARK  135  A    between atoms: _340  and  _343
REMARK  136  A    between atoms: _346  and  _348
REMARK  137  A    between atoms: _348  and  _349
REMARK  138  A    between atoms: _352  and  _354
REMARK  139  A    between atoms: _354  and  _355
REMARK  140  A    between atoms: _354  and  _357
REMARK  141  A    between atoms: _357  and  _358
REMARK  142  A    between atoms: _363  and  _365
REMARK  143  A    between atoms: _365  and  _366
REMARK  144  A    between atoms: _365  and  _368
REMARK  145  A    between atoms: _368  and  _369
REMARK  146  A    between atoms: _369  and  _370
REMARK  147  A    between atoms: _370  and  _371
REMARK  148  A    between atoms: _371  and  _372
REMARK  149  A    between atoms: _376  and  _378
REMARK  150  A    between atoms: _378  and  _379
REMARK  151  A    between atoms: _378  and  _381
REMARK  152  A    between atoms: _381  and  _382
REMARK  153  A    between atoms: _385  and  _387
REMARK  154  A    between atoms: _387  and  _388
REMARK  155  A    between atoms: _387  and  _390
REMARK  156  A    between atoms: _390  and  _391
REMARK  157  A    between atoms: _396  and  _398
REMARK  158  A    between atoms: _398  and  _399
REMARK  159  A    between atoms: _401  and  _403
REMARK  160  A    between atoms: _403  and  _404
REMARK  161  A    between atoms: _403  and  _406
REMARK  162  A    between atoms: _406  and  _407
REMARK  163  A    between atoms: _407  and  _408
REMARK  164  A    between atoms: _408  and  _409
REMARK  165  A    between atoms: _409  and  _410
REMARK  166  A    between atoms: _414  and  _416
REMARK  167  A    between atoms: _416  and  _417
REMARK  168  A    between atoms: _416  and  _419
REMARK  169  A    between atoms: _419  and  _420
REMARK  170  A    between atoms: _420  and  _421
REMARK  171  A    between atoms: _421  and  _422
REMARK  172  A    between atoms: _431  and  _433
REMARK  173  A    between atoms: _433  and  _434
REMARK  174  A    between atoms: _433  and  _436
REMARK  175  A    between atoms: _436  and  _437
REMARK  176  A    between atoms: _442  and  _444
REMARK  177  A    between atoms: _444  and  _445
REMARK  178  A    between atoms: _444  and  _447
REMARK  179  A    between atoms: _447  and  _448
REMARK  180  A    between atoms: _453  and  _454
REMARK  181  A    between atoms: _456  and  _458
REMARK  182  A    between atoms: _458  and  _459
REMARK  183  A    between atoms: _458  and  _461
REMARK  184  A    between atoms: _461  and  _462
REMARK  185  A    between atoms: _462  and  _463
REMARK  186  A    between atoms: _463  and  _464
REMARK  187  A    between atoms: _464  and  _465
REMARK  188  A    between atoms: _469  and  _471
REMARK  189  A    between atoms: _471  and  _472
REMARK  190  A    between atoms: _471  and  _474
REMARK  191  A    between atoms: _474  and  _475
REMARK  192  A    between atoms: _477  and  _479
REMARK  193  A    between atoms: _479  and  _480
REMARK  194  A    between atoms: _479  and  _482
REMARK  195  A    between atoms: _482  and  _483
REMARK  196  A    between atoms: _486  and  _488
REMARK  197  A    between atoms: _488  and  _489
REMARK  198  A    between atoms: _488  and  _491
REMARK  199  A    between atoms: _491  and  _492
REMARK  200  A    between atoms: _492  and  _493
REMARK  201  A    between atoms: _496  and  _498
REMARK  202  A    between atoms: _498  and  _499
REMARK  203  A    between atoms: _502  and  _504
REMARK  204  A    between atoms: _504  and  _505
REMARK  205  A    between atoms: _504  and  _507
REMARK  206  A    between atoms: _507  and  _508
REMARK  207  A    between atoms: _510  and  _512
REMARK  208  A    between atoms: _512  and  _513
REMARK  209  A    between atoms: _515  and  _517
REMARK  210  A    between atoms: _517  and  _518
REMARK  211  A    between atoms: _517  and  _520
REMARK  212  A    between atoms: _520  and  _521
REMARK  213  A    between atoms: _524  and  _526
REMARK  214  A    between atoms: _526  and  _527
REMARK  215  A    between atoms: _529  and  _531
REMARK  216  A    between atoms: _531  and  _532
REMARK  217  A    between atoms: _531  and  _534
REMARK  218  A    between atoms: _534  and  _535
REMARK  219  A    between atoms: _540  and  _542
REMARK  220  A    between atoms: _542  and  _543
REMARK  221  A    between atoms: _542  and  _545
REMARK  222  A    between atoms: _545  and  _546
REMARK  223  A    between atoms: _546  and  _547
REMARK  224  A    between atoms: _554  and  _555
REMARK  225  A    between atoms: _555  and  _571
REMARK  226  A    between atoms: _556  and  _558
REMARK  227  A    between atoms: _558  and  _559
REMARK  228  A    between atoms: _559  and  _560
REMARK  229  A    between atoms: _564  and  _566
REMARK  230  A    between atoms: _566  and  _567
REMARK  231  A    between atoms: _566  and  _574
REMARK  232  A    between atoms: _567  and  _568
REMARK  233  A    between atoms: _568  and  _569
REMARK  234  A    between atoms: _569  and  _570
REMARK  235  A    between atoms: _570  and  _571
REMARK  236  A    between atoms: _576  and  _578
REMARK  237  A    between atoms: _578  and  _579
REMARK  238  A    between atoms: _578  and  _581
REMARK  239  A    between atoms: _581  and  _582
REMARK  240  A    between atoms: _585  and  _587
REMARK  241  A    between atoms: _587  and  _588
REMARK  242  A    between atoms: _590  and  _592
REMARK  243  A    between atoms: _592  and  _593
REMARK  244  A    between atoms: _596  and  _598
REMARK  245  A    between atoms: _598  and  _599
REMARK  246  A    between atoms: _598  and  _601
REMARK  247  A    between atoms: _601  and  _602
REMARK  248  A    between atoms: _607  and  _608
REMARK                            x       y       z     vdW  Elec       q    Type
REMARK                         _______ _______ _______ _____ _____    ______ ____
ROOT
ATOM      1  O   HOH     1      27.161  19.229  28.881  0.00  0.00    +0.000 OA
ENDROOT
TORSDOF 0
REMARK  Name = ../refined-set-2016/3g2n/3g2n_pocket.pdb
REMARK  248 active torsions:
REMARK  status: ('A' for Active; 'I' for Inactive)
REMARK    1  A    between atoms: _1  and  _3
REMARK    2  A    between atoms: _3  and  _4
REMARK    3  A    between atoms: _3  and  _6
REMARK    4  A    between atoms: _6  and  _7
REMARK    5  A    between atoms: _12  and  _13
REMARK    6  A    between atoms: _15  and  _17
REMARK    7  A    between atoms: _17  and  _18
REMARK    8  A    between atoms: _17  and  _20
REMARK    9  A    between atoms: _20  and  _21
REMARK   10  A    between atoms: _21  and  _22
REMARK   11  A    between atoms: _25  and  _27
REMARK   12  A    between atoms: _27  and  _28
REMARK   13  A    between atoms: _27  and  _30
REMARK   14  A    between atoms: _30  and  _31
REMARK   15  A    between atoms: _36  and  _38
REMARK   16  A    between atoms: _38  and  _39
REMARK   17  A    between atoms: _41  and  _43
REMARK   18  A    between atoms: _43  and  _44
REMARK   19  A    between atoms: _46  and  _48
REMARK   20  A    between atoms: _48  and  _49
REMARK   21  A    between atoms: _48  and  _51
REMARK   22  A    between atoms: _51  and  _52
REMARK   23  A    between atoms: _55  and  _57
REMARK   24  A    between atoms: _57  and  _58
REMARK   25  A    between atoms: _60  and  _62
REMARK   26  A    between atoms: _62  and  _63
REMARK   27  A    between atoms: _62  and  _65
REMARK   28  A    between atoms: _65  and  _66
REMARK   29  A    between atoms: _66  and  _67
REMARK   30  A    between atoms: _67  and  _68
REMARK   31  A    between atoms: _77  and  _79
REMARK   32  A    between atoms: _79  and  _80
REMARK   33  A    between atoms: _79  and  _82
REMARK   34  A    between atoms: _82  and  _83
REMARK   35  A    between atoms: _86  and  _88
REMARK   36  A    between atoms: _88  and  _89
REMARK   37  A    between atoms: _92  and  _94
REMARK   38  A    between atoms: _94  and  _95
REMARK   39  A    between atoms: _94  and  _97
REMARK   40  A    between atoms: _97  and  _98
REMARK   41  A    between atoms: _104  and  _106
REMARK   42  A    between atoms: _106  and  _107
REMARK   43  A    between atoms: _106  and  _109
REMARK   44  A    between atoms: _109  and  _110
REMARK   45  A    between atoms: _115  and  _117
REMARK   46  A    between atoms: _117  and  _118
REMARK   47  A    between atoms: _117  and  _120
REMARK   48  A    between atoms: _120  and  _121
REMARK   49  A    between atoms: _124  and  _126
REMARK   50  A    between atoms: _126  and  _127
REMARK   51  A    between atoms: _126  and  _129
REMARK   52  A    between atoms: _129  and  _130
REMARK   53  A    between atoms: _135  and  _137
REMARK   54  A    between atoms: _137  and  _138
REMARK   55  A    between atoms: _137  and  _140
REMARK   56  A    between atoms: _140  and  _141
REMARK   57  A    between atoms: _147  and  _149
REMARK   58  A    between atoms: _149  and  _150
REMARK   59  A    between atoms: _149  and  _152
REMARK   60  A    between atoms: _152  and  _153
REMARK   61  A    between atoms: _159  and  _161
REMARK   62  A    between atoms: _161  and  _162
REMARK   63  A    between atoms: _161  and  _164
REMARK   64  A    between atoms: _164  and  _165
REMARK   65  A    between atoms: _165  and  _166
REMARK   66  A    between atoms: _166  and  _167
REMARK   67  A    between atoms: _176  and  _178
REMARK   68  A    between atoms: _178  and  _179
REMARK   69  A    between atoms: _178  and  _181
REMARK   70  A    between atoms: _181  and  _182
REMARK   71  A    between atoms: _187  and  _189
REMARK   72  A    between atoms: _189  and  _190
REMARK   73  A    between atoms: _189  and  _192
REMARK   74  A    between atoms: _192  and  _193
REMARK   75  A    between atoms: _196  and  _198
REMARK   76  A    between atoms: _198  and  _199
REMARK   77  A    between atoms: _198  and  _201
REMARK   78  A    between atoms: _201  and  _202
REMARK   79  A    between atoms: _205  and  _207
REMARK   80  A    between atoms: _207  and  _208
REMARK   81  A    between atoms: _207  and  _210
REMARK   82  A    between atoms: _210  and  _211
REMARK   83  A    between atoms: _216  and  _218
REMARK   84  A    between atoms: _218  and  _219
REMARK   85  A    between atoms: _218  and  _221
REMARK   86  A    between atoms: _221  and  _222
REMARK   87  A    between atoms: _227  and  _228
REMARK   88  A    between atoms: _230  and  _232
REMARK   89  A    between atoms: _232  and  _233
REMARK   90  A    between atoms: _232  and  _235
REMARK   91  A    between atoms: _235  and  _236
REMARK   92  A    between atoms: _239  and  _241
REMARK   93  A    between atoms: _241  and  _242
REMARK   94  A    between atoms: _241  and  _244
REMARK   95  A    between atoms: _244  and  _245
REMARK   96  A    between atoms: _250  and  _252
REMARK   97  A    between atoms: _252  and  _253
REMARK   98  A    between atoms: _252  and  _255
REMARK   99  A    between atoms: _255  and  _256
REMARK  100  A    between atoms: _261  and  _263
REMARK  101  A    between atoms: _263  and  _264
REMARK  102  A    between atoms: _263  and  _266
REMARK  103  A    between atoms: _266  and  _267
REMARK  104  A    between atoms: _270  and  _272
REMARK  105  A    between atoms: _272  and  _273
REMARK  106  A    between atoms: _272  and  _275
REMARK  107  A    between atoms: _278  and  _280
REMARK  108  A    between atoms: _280  and  _281
REMARK  109  A    between atoms: _280  and  _283
REMARK  110  A    between atoms: _283  and  _284
REMARK  111  A    between atoms: _287  and  _289
REMARK  112  A    between atoms: _289  and  _290
REMARK  113  A    between atoms: _289  and  _292
REMARK  114  A    between atoms: _292  and  _293
REMARK  115  A    between atoms: _293  and  _294
REMARK  116  A    between atoms: _297  and  _299
REMARK  117  A    between atoms: _299  and  _300
REMARK  118  A    between atoms: _303  and  _305
REMARK  119  A    between atoms: _305  and  _306
REMARK  120  A    between atoms: _305  and  _308
REMARK  121  A    between atoms: _308  and  _309
REMARK  122  A    between atoms: _312  and  _314
REMARK  123  A    between atoms: _314  and  _315
REMARK  124  A    between atoms: _314  and  _317
REMARK  125  A    between atoms: _317  and  _318
REMARK  126  A    between atoms: _318  and  _319
REMARK  127  A    between atoms: _322  and  _324
REMARK  128  A    between atoms: _324  and  _325
REMARK  129  A    between atoms: _324  and  _327
REMARK  130  A    between atoms: _327  and  _328
REMARK  131  A    between atoms: _333  and  _335
REMARK  132  A    between atoms: _335  and  _336
REMARK  133  A    between atoms: _338  and  _340
REMARK  134  A    between atoms: _340  and  _341
REMARK  135  A    between atoms: _340  and  _343
REMARK  136  A    between atoms: _346  and  _348
REMARK  137  A    between atoms: _348  and  _349
REMARK  138  A    between atoms: _352  and  _354
REMARK  139  A    between atoms: _354  and  _355
REMARK  140  A    between atoms: _354  and  _357
REMARK  141  A    between atoms: _357  and  _358
REMARK  142  A    between atoms: _363  and  _365
REMARK  143  A    between atoms: _365  and  _366
REMARK  144  A    between atoms: _365  and  _368
REMARK  145  A    between atoms: _368  and  _369
REMARK  146  A    between atoms: _369  and  _370
REMARK  147  A    between atoms: _370  and  _371
REMARK  148  A    between atoms: _371  and  _372
REMARK  149  A    between atoms: _376  and  _378
REMARK  150  A    between atoms: _378  and  _379
REMARK  151  A    between atoms: _378  and  _381
REMARK  152  A    between atoms: _381  and  _382
REMARK  153  A    between atoms: _385  and  _387
REMARK  154  A    between atoms: _387  and  _388
REMARK  155  A    between atoms: _387  and  _390
REMARK  156  A    between atoms: _390  and  _391
REMARK  157  A    between atoms: _396  and  _398
REMARK  158  A    between atoms: _398  and  _399
REMARK  159  A    between atoms: _401  and  _403
REMARK  160  A    between atoms: _403  and  _404
REMARK  161  A    between atoms: _403  and  _406
REMARK  162  A    between atoms: _406  and  _407
REMARK  163  A    between atoms: _407  and  _408
REMARK  164  A    between atoms: _408  and  _409
REMARK  165  A    between atoms: _409  and  _410
REMARK  166  A    between atoms: _414  and  _416
REMARK  167  A    between atoms: _416  and  _417
REMARK  168  A    between atoms: _416  and  _419
REMARK  169  A    between atoms: _419  and  _420
REMARK  170  A    between atoms: _420  and  _421
REMARK  171  A    between atoms: _421  and  _422
REMARK  172  A    between atoms: _431  and  _433
REMARK  173  A    between atoms: _433  and  _434
REMARK  174  A    between atoms: _433  and  _436
REMARK  175  A    between atoms: _436  and  _437
REMARK  176  A    between atoms: _442  and  _444
REMARK  177  A    between atoms: _444  and  _445
REMARK  178  A    between atoms: _444  and  _447
REMARK  179  A    between atoms: _447  and  _448
REMARK  180  A    between atoms: _453  and  _454
REMARK  181  A    between atoms: _456  and  _458
REMARK  182  A    between atoms: _458  and  _459
REMARK  183  A    between atoms: _458  and  _461
REMARK  184  A    between atoms: _461  and  _462
REMARK  185  A    between atoms: _462  and  _463
REMARK  186  A    between atoms: _463  and  _464
REMARK  187  A    between atoms: _464  and  _465
REMARK  188  A    between atoms: _469  and  _471
REMARK  189  A    between atoms: _471  and  _472
REMARK  190  A    between atoms: _471  and  _474
REMARK  191  A    between atoms: _474  and  _475
REMARK  192  A    between atoms: _477  and  _479
REMARK  193  A    between atoms: _479  and  _480
REMARK  194  A    between atoms: _479  and  _482
REMARK  195  A    between atoms: _482  and  _483
REMARK  196  A    between atoms: _486  and  _488
REMARK  197  A    between atoms: _488  and  _489
REMARK  198  A    between atoms: _488  and  _491
REMARK  199  A    between atoms: _491  and  _492
REMARK  200  A    between atoms: _492  and  _493
REMARK  201  A    between atoms: _496  and  _498
REMARK  202  A    between atoms: _498  and  _499
REMARK  203  A    between atoms: _502  and  _504
REMARK  204  A    between atoms: _504  and  _505
REMARK  205  A    between atoms: _504  and  _507
REMARK  206  A    between atoms: _507  and  _508
REMARK  207  A    between atoms: _510  and  _512
REMARK  208  A    between atoms: _512  and  _513
REMARK  209  A    between atoms: _515  and  _517
REMARK  210  A    between atoms: _517  and  _518
REMARK  211  A    between atoms: _517  and  _520
REMARK  212  A    between atoms: _520  and  _521
REMARK  213  A    between atoms: _524  and  _526
REMARK  214  A    between atoms: _526  and  _527
REMARK  215  A    between atoms: _529  and  _531
REMARK  216  A    between atoms: _531  and  _532
REMARK  217  A    between atoms: _531  and  _534
REMARK  218  A    between atoms: _534  and  _535
REMARK  219  A    between atoms: _540  and  _542
REMARK  220  A    between atoms: _542  and  _543
REMARK  221  A    between atoms: _542  and  _545
REMARK  222  A    between atoms: _545  and  _546
REMARK  223  A    between atoms: _546  and  _547
REMARK  224  A    between atoms: _554  and  _555
REMARK  225  A    between atoms: _555  and  _571
REMARK  226  A    between atoms: _556  and  _558
REMARK  227  A    between atoms: _558  and  _559
REMARK  228  A    between atoms: _559  and  _560
REMARK  229  A    between atoms: _564  and  _566
REMARK  230  A    between atoms: _566  and  _567
REMARK  231  A    between atoms: _566  and  _574
REMARK  232  A    between atoms: _567  and  _568
REMARK  233  A    between atoms: _568  and  _569
REMARK  234  A    between atoms: _569  and  _570
REMARK  235  A    between atoms: _570  and  _571
REMARK  236  A    between atoms: _576  and  _578
REMARK  237  A    between atoms: _578  and  _579
REMARK  238  A    between atoms: _578  and  _581
REMARK  239  A    between atoms: _581  and  _582
REMARK  240  A    between atoms: _585  and  _587
REMARK  241  A    between atoms: _587  and  _588
REMARK  242  A    between atoms: _590  and  _592
REMARK  243  A    between atoms: _592  and  _593
REMARK  244  A    between atoms: _596  and  _598
REMARK  245  A    between atoms: _598  and  _599
REMARK  246  A    between atoms: _598  and  _601
REMARK  247  A    between atoms: _601  and  _602
REMARK  248  A    between atoms: _607  and  _608
REMARK                            x       y       z     vdW  Elec       q    Type
REMARK                         _______ _______ _______ _____ _____    ______ ____
ROOT
ATOM      1  O   HOH     1      29.272  21.785  26.283  0.00  0.00    +0.000 OA
ENDROOT
TORSDOF 0
REMARK  Name = ../refined-set-2016/3g2n/3g2n_pocket.pdb
REMARK  248 active torsions:
REMARK  status: ('A' for Active; 'I' for Inactive)
REMARK    1  A    between atoms: _1  and  _3
REMARK    2  A    between atoms: _3  and  _4
REMARK    3  A    between atoms: _3  and  _6
REMARK    4  A    between atoms: _6  and  _7
REMARK    5  A    between atoms: _12  and  _13
REMARK    6  A    between atoms: _15  and  _17
REMARK    7  A    between atoms: _17  and  _18
REMARK    8  A    between atoms: _17  and  _20
REMARK    9  A    between atoms: _20  and  _21
REMARK   10  A    between atoms: _21  and  _22
REMARK   11  A    between atoms: _25  and  _27
REMARK   12  A    between atoms: _27  and  _28
REMARK   13  A    between atoms: _27  and  _30
REMARK   14  A    between atoms: _30  and  _31
REMARK   15  A    between atoms: _36  and  _38
REMARK   16  A    between atoms: _38  and  _39
REMARK   17  A    between atoms: _41  and  _43
REMARK   18  A    between atoms: _43  and  _44
REMARK   19  A    between atoms: _46  and  _48
REMARK   20  A    between atoms: _48  and  _49
REMARK   21  A    between atoms: _48  and  _51
REMARK   22  A    between atoms: _51  and  _52
REMARK   23  A    between atoms: _55  and  _57
REMARK   24  A    between atoms: _57  and  _58
REMARK   25  A    between atoms: _60  and  _62
REMARK   26  A    between atoms: _62  and  _63
REMARK   27  A    between atoms: _62  and  _65
REMARK   28  A    between atoms: _65  and  _66
REMARK   29  A    between atoms: _66  and  _67
REMARK   30  A    between atoms: _67  and  _68
REMARK   31  A    between atoms: _77  and  _79
REMARK   32  A    between atoms: _79  and  _80
REMARK   33  A    between atoms: _79  and  _82
REMARK   34  A    between atoms: _82  and  _83
REMARK   35  A    between atoms: _86  and  _88
REMARK   36  A    between atoms: _88  and  _89
REMARK   37  A    between atoms: _92  and  _94
REMARK   38  A    between atoms: _94  and  _95
REMARK   39  A    between atoms: _94  and  _97
REMARK   40  A    between atoms: _97  and  _98
REMARK   41  A    between atoms: _104  and  _106
REMARK   42  A    between atoms: _106  and  _107
REMARK   43  A    between atoms: _106  and  _109
REMARK   44  A    between atoms: _109  and  _110
REMARK   45  A    between atoms: _115  and  _117
REMARK   46  A    between atoms: _117  and  _118
REMARK   47  A    between atoms: _117  and  _120
REMARK   48  A    between atoms: _120  and  _121
REMARK   49  A    between atoms: _124  and  _126
REMARK   50  A    between atoms: _126  and  _127
REMARK   51  A    between atoms: _126  and  _129
REMARK   52  A    between atoms: _129  and  _130
REMARK   53  A    between atoms: _135  and  _137
REMARK   54  A    between atoms: _137  and  _138
REMARK   55  A    between atoms: _137  and  _140
REMARK   56  A    between atoms: _140  and  _141
REMARK   57  A    between atoms: _147  and  _149
REMARK   58  A    between atoms: _149  and  _150
REMARK   59  A    between atoms: _149  and  _152
REMARK   60  A    between atoms: _152  and  _153
REMARK   61  A    between atoms: _159  and  _161
REMARK   62  A    between atoms: _161  and  _162
REMARK   63  A    between atoms: _161  and  _164
REMARK   64  A    between atoms: _164  and  _165
REMARK   65  A    between atoms: _165  and  _166
REMARK   66  A    between atoms: _166  and  _167
REMARK   67  A    between atoms: _176  and  _178
REMARK   68  A    between atoms: _178  and  _179
REMARK   69  A    between atoms: _178  and  _181
REMARK   70  A    between atoms: _181  and  _182
REMARK   71  A    between atoms: _187  and  _189
REMARK   72  A    between atoms: _189  and  _190
REMARK   73  A    between atoms: _189  and  _192
REMARK   74  A    between atoms: _192  and  _193
REMARK   75  A    between atoms: _196  and  _198
REMARK   76  A    between atoms: _198  and  _199
REMARK   77  A    between atoms: _198  and  _201
REMARK   78  A    between atoms: _201  and  _202
REMARK   79  A    between atoms: _205  and  _207
REMARK   80  A    between atoms: _207  and  _208
REMARK   81  A    between atoms: _207  and  _210
REMARK   82  A    between atoms: _210  and  _211
REMARK   83  A    between atoms: _216  and  _218
REMARK   84  A    between atoms: _218  and  _219
REMARK   85  A    between atoms: _218  and  _221
REMARK   86  A    between atoms: _221  and  _222
REMARK   87  A    between atoms: _227  and  _228
REMARK   88  A    between atoms: _230  and  _232
REMARK   89  A    between atoms: _232  and  _233
REMARK   90  A    between atoms: _232  and  _235
REMARK   91  A    between atoms: _235  and  _236
REMARK   92  A    between atoms: _239  and  _241
REMARK   93  A    between atoms: _241  and  _242
REMARK   94  A    between atoms: _241  and  _244
REMARK   95  A    between atoms: _244  and  _245
REMARK   96  A    between atoms: _250  and  _252
REMARK   97  A    between atoms: _252  and  _253
REMARK   98  A    between atoms: _252  and  _255
REMARK   99  A    between atoms: _255  and  _256
REMARK  100  A    between atoms: _261  and  _263
REMARK  101  A    between atoms: _263  and  _264
REMARK  102  A    between atoms: _263  and  _266
REMARK  103  A    between atoms: _266  and  _267
REMARK  104  A    between atoms: _270  and  _272
REMARK  105  A    between atoms: _272  and  _273
REMARK  106  A    between atoms: _272  and  _275
REMARK  107  A    between atoms: _278  and  _280
REMARK  108  A    between atoms: _280  and  _281
REMARK  109  A    between atoms: _280  and  _283
REMARK  110  A    between atoms: _283  and  _284
REMARK  111  A    between atoms: _287  and  _289
REMARK  112  A    between atoms: _289  and  _290
REMARK  113  A    between atoms: _289  and  _292
REMARK  114  A    between atoms: _292  and  _293
REMARK  115  A    between atoms: _293  and  _294
REMARK  116  A    between atoms: _297  and  _299
REMARK  117  A    between atoms: _299  and  _300
REMARK  118  A    between atoms: _303  and  _305
REMARK  119  A    between atoms: _305  and  _306
REMARK  120  A    between atoms: _305  and  _308
REMARK  121  A    between atoms: _308  and  _309
REMARK  122  A    between atoms: _312  and  _314
REMARK  123  A    between atoms: _314  and  _315
REMARK  124  A    between atoms: _314  and  _317
REMARK  125  A    between atoms: _317  and  _318
REMARK  126  A    between atoms: _318  and  _319
REMARK  127  A    between atoms: _322  and  _324
REMARK  128  A    between atoms: _324  and  _325
REMARK  129  A    between atoms: _324  and  _327
REMARK  130  A    between atoms: _327  and  _328
REMARK  131  A    between atoms: _333  and  _335
REMARK  132  A    between atoms: _335  and  _336
REMARK  133  A    between atoms: _338  and  _340
REMARK  134  A    between atoms: _340  and  _341
REMARK  135  A    between atoms: _340  and  _343
REMARK  136  A    between atoms: _346  and  _348
REMARK  137  A    between atoms: _348  and  _349
REMARK  138  A    between atoms: _352  and  _354
REMARK  139  A    between atoms: _354  and  _355
REMARK  140  A    between atoms: _354  and  _357
REMARK  141  A    between atoms: _357  and  _358
REMARK  142  A    between atoms: _363  and  _365
REMARK  143  A    between atoms: _365  and  _366
REMARK  144  A    between atoms: _365  and  _368
REMARK  145  A    between atoms: _368  and  _369
REMARK  146  A    between atoms: _369  and  _370
REMARK  147  A    between atoms: _370  and  _371
REMARK  148  A    between atoms: _371  and  _372
REMARK  149  A    between atoms: _376  and  _378
REMARK  150  A    between atoms: _378  and  _379
REMARK  151  A    between atoms: _378  and  _381
REMARK  152  A    between atoms: _381  and  _382
REMARK  153  A    between atoms: _385  and  _387
REMARK  154  A    between atoms: _387  and  _388
REMARK  155  A    between atoms: _387  and  _390
REMARK  156  A    between atoms: _390  and  _391
REMARK  157  A    between atoms: _396  and  _398
REMARK  158  A    between atoms: _398  and  _399
REMARK  159  A    between atoms: _401  and  _403
REMARK  160  A    between atoms: _403  and  _404
REMARK  161  A    between atoms: _403  and  _406
REMARK  162  A    between atoms: _406  and  _407
REMARK  163  A    between atoms: _407  and  _408
REMARK  164  A    between atoms: _408  and  _409
REMARK  165  A    between atoms: _409  and  _410
REMARK  166  A    between atoms: _414  and  _416
REMARK  167  A    between atoms: _416  and  _417
REMARK  168  A    between atoms: _416  and  _419
REMARK  169  A    between atoms: _419  and  _420
REMARK  170  A    between atoms: _420  and  _421
REMARK  171  A    between atoms: _421  and  _422
REMARK  172  A    between atoms: _431  and  _433
REMARK  173  A    between atoms: _433  and  _434
REMARK  174  A    between atoms: _433  and  _436
REMARK  175  A    between atoms: _436  and  _437
REMARK  176  A    between atoms: _442  and  _444
REMARK  177  A    between atoms: _444  and  _445
REMARK  178  A    between atoms: _444  and  _447
REMARK  179  A    between atoms: _447  and  _448
REMARK  180  A    between atoms: _453  and  _454
REMARK  181  A    between atoms: _456  and  _458
REMARK  182  A    between atoms: _458  and  _459
REMARK  183  A    between atoms: _458  and  _461
REMARK  184  A    between atoms: _461  and  _462
REMARK  185  A    between atoms: _462  and  _463
REMARK  186  A    between atoms: _463  and  _464
REMARK  187  A    between atoms: _464  and  _465
REMARK  188  A    between atoms: _469  and  _471
REMARK  189  A    between atoms: _471  and  _472
REMARK  190  A    between atoms: _471  and  _474
REMARK  191  A    between atoms: _474  and  _475
REMARK  192  A    between atoms: _477  and  _479
REMARK  193  A    between atoms: _479  and  _480
REMARK  194  A    between atoms: _479  and  _482
REMARK  195  A    between atoms: _482  and  _483
REMARK  196  A    between atoms: _486  and  _488
REMARK  197  A    between atoms: _488  and  _489
REMARK  198  A    between atoms: _488  and  _491
REMARK  199  A    between atoms: _491  and  _492
REMARK  200  A    between atoms: _492  and  _493
REMARK  201  A    between atoms: _496  and  _498
REMARK  202  A    between atoms: _498  and  _499
REMARK  203  A    between atoms: _502  and  _504
REMARK  204  A    between atoms: _504  and  _505
REMARK  205  A    between atoms: _504  and  _507
REMARK  206  A    between atoms: _507  and  _508
REMARK  207  A    between atoms: _510  and  _512
REMARK  208  A    between atoms: _512  and  _513
REMARK  209  A    between atoms: _515  and  _517
REMARK  210  A    between atoms: _517  and  _518
REMARK  211  A    between atoms: _517  and  _520
REMARK  212  A    between atoms: _520  and  _521
REMARK  213  A    between atoms: _524  and  _526
REMARK  214  A    between atoms: _526  and  _527
REMARK  215  A    between atoms: _529  and  _531
REMARK  216  A    between atoms: _531  and  _532
REMARK  217  A    between atoms: _531  and  _534
REMARK  218  A    between atoms: _534  and  _535
REMARK  219  A    between atoms: _540  and  _542
REMARK  220  A    between atoms: _542  and  _543
REMARK  221  A    between atoms: _542  and  _545
REMARK  222  A    between atoms: _545  and  _546
REMARK  223  A    between atoms: _546  and  _547
REMARK  224  A    between atoms: _554  and  _555
REMARK  225  A    between atoms: _555  and  _571
REMARK  226  A    between atoms: _556  and  _558
REMARK  227  A    between atoms: _558  and  _559
REMARK  228  A    between atoms: _559  and  _560
REMARK  229  A    between atoms: _564  and  _566
REMARK  230  A    between atoms: _566  and  _567
REMARK  231  A    between atoms: _566  and  _574
REMARK  232  A    between atoms: _567  and  _568
REMARK  233  A    between atoms: _568  and  _569
REMARK  234  A    between atoms: _569  and  _570
REMARK  235  A    between atoms: _570  and  _571
REMARK  236  A    between atoms: _576  and  _578
REMARK  237  A    between atoms: _578  and  _579
REMARK  238  A    between atoms: _578  and  _581
REMARK  239  A    between atoms: _581  and  _582
REMARK  240  A    between atoms: _585  and  _587
REMARK  241  A    between atoms: _587  and  _588
REMARK  242  A    between atoms: _590  and  _592
REMARK  243  A    between atoms: _592  and  _593
REMARK  244  A    between atoms: _596  and  _598
REMARK  245  A    between atoms: _598  and  _599
REMARK  246  A    between atoms: _598  and  _601
REMARK  247  A    between atoms: _601  and  _602
REMARK  248  A    between atoms: _607  and  _608
REMARK                            x       y       z     vdW  Elec       q    Type
REMARK                         _______ _______ _______ _____ _____    ______ ____
ROOT
ATOM      1  O   HOH     1      32.871  25.441  32.298  0.00  0.00    +0.000 OA
ENDROOT
TORSDOF 0
REMARK  Name = ../refined-set-2016/3g2n/3g2n_pocket.pdb
REMARK  248 active torsions:
REMARK  status: ('A' for Active; 'I' for Inactive)
REMARK    1  A    between atoms: _1  and  _3
REMARK    2  A    between atoms: _3  and  _4
REMARK    3  A    between atoms: _3  and  _6
REMARK    4  A    between atoms: _6  and  _7
REMARK    5  A    between atoms: _12  and  _13
REMARK    6  A    between atoms: _15  and  _17
REMARK    7  A    between atoms: _17  and  _18
REMARK    8  A    between atoms: _17  and  _20
REMARK    9  A    between atoms: _20  and  _21
REMARK   10  A    between atoms: _21  and  _22
REMARK   11  A    between atoms: _25  and  _27
REMARK   12  A    between atoms: _27  and  _28
REMARK   13  A    between atoms: _27  and  _30
REMARK   14  A    between atoms: _30  and  _31
REMARK   15  A    between atoms: _36  and  _38
REMARK   16  A    between atoms: _38  and  _39
REMARK   17  A    between atoms: _41  and  _43
REMARK   18  A    between atoms: _43  and  _44
REMARK   19  A    between atoms: _46  and  _48
REMARK   20  A    between atoms: _48  and  _49
REMARK   21  A    between atoms: _48  and  _51
REMARK   22  A    between atoms: _51  and  _52
REMARK   23  A    between atoms: _55  and  _57
REMARK   24  A    between atoms: _57  and  _58
REMARK   25  A    between atoms: _60  and  _62
REMARK   26  A    between atoms: _62  and  _63
REMARK   27  A    between atoms: _62  and  _65
REMARK   28  A    between atoms: _65  and  _66
REMARK   29  A    between atoms: _66  and  _67
REMARK   30  A    between atoms: _67  and  _68
REMARK   31  A    between atoms: _77  and  _79
REMARK   32  A    between atoms: _79  and  _80
REMARK   33  A    between atoms: _79  and  _82
REMARK   34  A    between atoms: _82  and  _83
REMARK   35  A    between atoms: _86  and  _88
REMARK   36  A    between atoms: _88  and  _89
REMARK   37  A    between atoms: _92  and  _94
REMARK   38  A    between atoms: _94  and  _95
REMARK   39  A    between atoms: _94  and  _97
REMARK   40  A    between atoms: _97  and  _98
REMARK   41  A    between atoms: _104  and  _106
REMARK   42  A    between atoms: _106  and  _107
REMARK   43  A    between atoms: _106  and  _109
REMARK   44  A    between atoms: _109  and  _110
REMARK   45  A    between atoms: _115  and  _117
REMARK   46  A    between atoms: _117  and  _118
REMARK   47  A    between atoms: _117  and  _120
REMARK   48  A    between atoms: _120  and  _121
REMARK   49  A    between atoms: _124  and  _126
REMARK   50  A    between atoms: _126  and  _127
REMARK   51  A    between atoms: _126  and  _129
REMARK   52  A    between atoms: _129  and  _130
REMARK   53  A    between atoms: _135  and  _137
REMARK   54  A    between atoms: _137  and  _138
REMARK   55  A    between atoms: _137  and  _140
REMARK   56  A    between atoms: _140  and  _141
REMARK   57  A    between atoms: _147  and  _149
REMARK   58  A    between atoms: _149  and  _150
REMARK   59  A    between atoms: _149  and  _152
REMARK   60  A    between atoms: _152  and  _153
REMARK   61  A    between atoms: _159  and  _161
REMARK   62  A    between atoms: _161  and  _162
REMARK   63  A    between atoms: _161  and  _164
REMARK   64  A    between atoms: _164  and  _165
REMARK   65  A    between atoms: _165  and  _166
REMARK   66  A    between atoms: _166  and  _167
REMARK   67  A    between atoms: _176  and  _178
REMARK   68  A    between atoms: _178  and  _179
REMARK   69  A    between atoms: _178  and  _181
REMARK   70  A    between atoms: _181  and  _182
REMARK   71  A    between atoms: _187  and  _189
REMARK   72  A    between atoms: _189  and  _190
REMARK   73  A    between atoms: _189  and  _192
REMARK   74  A    between atoms: _192  and  _193
REMARK   75  A    between atoms: _196  and  _198
REMARK   76  A    between atoms: _198  and  _199
REMARK   77  A    between atoms: _198  and  _201
REMARK   78  A    between atoms: _201  and  _202
REMARK   79  A    between atoms: _205  and  _207
REMARK   80  A    between atoms: _207  and  _208
REMARK   81  A    between atoms: _207  and  _210
REMARK   82  A    between atoms: _210  and  _211
REMARK   83  A    between atoms: _216  and  _218
REMARK   84  A    between atoms: _218  and  _219
REMARK   85  A    between atoms: _218  and  _221
REMARK   86  A    between atoms: _221  and  _222
REMARK   87  A    between atoms: _227  and  _228
REMARK   88  A    between atoms: _230  and  _232
REMARK   89  A    between atoms: _232  and  _233
REMARK   90  A    between atoms: _232  and  _235
REMARK   91  A    between atoms: _235  and  _236
REMARK   92  A    between atoms: _239  and  _241
REMARK   93  A    between atoms: _241  and  _242
REMARK   94  A    between atoms: _241  and  _244
REMARK   95  A    between atoms: _244  and  _245
REMARK   96  A    between atoms: _250  and  _252
REMARK   97  A    between atoms: _252  and  _253
REMARK   98  A    between atoms: _252  and  _255
REMARK   99  A    between atoms: _255  and  _256
REMARK  100  A    between atoms: _261  and  _263
REMARK  101  A    between atoms: _263  and  _264
REMARK  102  A    between atoms: _263  and  _266
REMARK  103  A    between atoms: _266  and  _267
REMARK  104  A    between atoms: _270  and  _272
REMARK  105  A    between atoms: _272  and  _273
REMARK  106  A    between atoms: _272  and  _275
REMARK  107  A    between atoms: _278  and  _280
REMARK  108  A    between atoms: _280  and  _281
REMARK  109  A    between atoms: _280  and  _283
REMARK  110  A    between atoms: _283  and  _284
REMARK  111  A    between atoms: _287  and  _289
REMARK  112  A    between atoms: _289  and  _290
REMARK  113  A    between atoms: _289  and  _292
REMARK  114  A    between atoms: _292  and  _293
REMARK  115  A    between atoms: _293  and  _294
REMARK  116  A    between atoms: _297  and  _299
REMARK  117  A    between atoms: _299  and  _300
REMARK  118  A    between atoms: _303  and  _305
REMARK  119  A    between atoms: _305  and  _306
REMARK  120  A    between atoms: _305  and  _308
REMARK  121  A    between atoms: _308  and  _309
REMARK  122  A    between atoms: _312  and  _314
REMARK  123  A    between atoms: _314  and  _315
REMARK  124  A    between atoms: _314  and  _317
REMARK  125  A    between atoms: _317  and  _318
REMARK  126  A    between atoms: _318  and  _319
REMARK  127  A    between atoms: _322  and  _324
REMARK  128  A    between atoms: _324  and  _325
REMARK  129  A    between atoms: _324  and  _327
REMARK  130  A    between atoms: _327  and  _328
REMARK  131  A    between atoms: _333  and  _335
REMARK  132  A    between atoms: _335  and  _336
REMARK  133  A    between atoms: _338  and  _340
REMARK  134  A    between atoms: _340  and  _341
REMARK  135  A    between atoms: _340  and  _343
REMARK  136  A    between atoms: _346  and  _348
REMARK  137  A    between atoms: _348  and  _349
REMARK  138  A    between atoms: _352  and  _354
REMARK  139  A    between atoms: _354  and  _355
REMARK  140  A    between atoms: _354  and  _357
REMARK  141  A    between atoms: _357  and  _358
REMARK  142  A    between atoms: _363  and  _365
REMARK  143  A    between atoms: _365  and  _366
REMARK  144  A    between atoms: _365  and  _368
REMARK  145  A    between atoms: _368  and  _369
REMARK  146  A    between atoms: _369  and  _370
REMARK  147  A    between atoms: _370  and  _371
REMARK  148  A    between atoms: _371  and  _372
REMARK  149  A    between atoms: _376  and  _378
REMARK  150  A    between atoms: _378  and  _379
REMARK  151  A    between atoms: _378  and  _381
REMARK  152  A    between atoms: _381  and  _382
REMARK  153  A    between atoms: _385  and  _387
REMARK  154  A    between atoms: _387  and  _388
REMARK  155  A    between atoms: _387  and  _390
REMARK  156  A    between atoms: _390  and  _391
REMARK  157  A    between atoms: _396  and  _398
REMARK  158  A    between atoms: _398  and  _399
REMARK  159  A    between atoms: _401  and  _403
REMARK  160  A    between atoms: _403  and  _404
REMARK  161  A    between atoms: _403  and  _406
REMARK  162  A    between atoms: _406  and  _407
REMARK  163  A    between atoms: _407  and  _408
REMARK  164  A    between atoms: _408  and  _409
REMARK  165  A    between atoms: _409  and  _410
REMARK  166  A    between atoms: _414  and  _416
REMARK  167  A    between atoms: _416  and  _417
REMARK  168  A    between atoms: _416  and  _419
REMARK  169  A    between atoms: _419  and  _420
REMARK  170  A    between atoms: _420  and  _421
REMARK  171  A    between atoms: _421  and  _422
REMARK  172  A    between atoms: _431  and  _433
REMARK  173  A    between atoms: _433  and  _434
REMARK  174  A    between atoms: _433  and  _436
REMARK  175  A    between atoms: _436  and  _437
REMARK  176  A    between atoms: _442  and  _444
REMARK  177  A    between atoms: _444  and  _445
REMARK  178  A    between atoms: _444  and  _447
REMARK  179  A    between atoms: _447  and  _448
REMARK  180  A    between atoms: _453  and  _454
REMARK  181  A    between atoms: _456  and  _458
REMARK  182  A    between atoms: _458  and  _459
REMARK  183  A    between atoms: _458  and  _461
REMARK  184  A    between atoms: _461  and  _462
REMARK  185  A    between atoms: _462  and  _463
REMARK  186  A    between atoms: _463  and  _464
REMARK  187  A    between atoms: _464  and  _465
REMARK  188  A    between atoms: _469  and  _471
REMARK  189  A    between atoms: _471  and  _472
REMARK  190  A    between atoms: _471  and  _474
REMARK  191  A    between atoms: _474  and  _475
REMARK  192  A    between atoms: _477  and  _479
REMARK  193  A    between atoms: _479  and  _480
REMARK  194  A    between atoms: _479  and  _482
REMARK  195  A    between atoms: _482  and  _483
REMARK  196  A    between atoms: _486  and  _488
REMARK  197  A    between atoms: _488  and  _489
REMARK  198  A    between atoms: _488  and  _491
REMARK  199  A    between atoms: _491  and  _492
REMARK  200  A    between atoms: _492  and  _493
REMARK  201  A    between atoms: _496  and  _498
REMARK  202  A    between atoms: _498  and  _499
REMARK  203  A    between atoms: _502  and  _504
REMARK  204  A    between atoms: _504  and  _505
REMARK  205  A    between atoms: _504  and  _507
REMARK  206  A    between atoms: _507  and  _508
REMARK  207  A    between atoms: _510  and  _512
REMARK  208  A    between atoms: _512  and  _513
REMARK  209  A    between atoms: _515  and  _517
REMARK  210  A    between atoms: _517  and  _518
REMARK  211  A    between atoms: _517  and  _520
REMARK  212  A    between atoms: _520  and  _521
REMARK  213  A    between atoms: _524  and  _526
REMARK  214  A    between atoms: _526  and  _527
REMARK  215  A    between atoms: _529  and  _531
REMARK  216  A    between atoms: _531  and  _532
REMARK  217  A    between atoms: _531  and  _534
REMARK  218  A    between atoms: _534  and  _535
REMARK  219  A    between atoms: _540  and  _542
REMARK  220  A    between atoms: _542  and  _543
REMARK  221  A    between atoms: _542  and  _545
REMARK  222  A    between atoms: _545  and  _546
REMARK  223  A    between atoms: _546  and  _547
REMARK  224  A    between atoms: _554  and  _555
REMARK  225  A    between atoms: _555  and  _571
REMARK  226  A    between atoms: _556  and  _558
REMARK  227  A    between atoms: _558  and  _559
REMARK  228  A    between atoms: _559  and  _560
REMARK  229  A    between atoms: _564  and  _566
REMARK  230  A    between atoms: _566  and  _567
REMARK  231  A    between atoms: _566  and  _574
REMARK  232  A    between atoms: _567  and  _568
REMARK  233  A    between atoms: _568  and  _569
REMARK  234  A    between atoms: _569  and  _570
REMARK  235  A    between atoms: _570  and  _571
REMARK  236  A    between atoms: _576  and  _578
REMARK  237  A    between atoms: _578  and  _579
REMARK  238  A    between atoms: _578  and  _581
REMARK  239  A    between atoms: _581  and  _582
REMARK  240  A    between atoms: _585  and  _587
REMARK  241  A    between atoms: _587  and  _588
REMARK  242  A    between atoms: _590  and  _592
REMARK  243  A    between atoms: _592  and  _593
REMARK  244  A    between atoms: _596  and  _598
REMARK  245  A    between atoms: _598  and  _599
REMARK  246  A    between atoms: _598  and  _601
REMARK  247  A    between atoms: _601  and  _602
REMARK  248  A    between atoms: _607  and  _608
REMARK                            x       y       z     vdW  Elec       q    Type
REMARK                         _______ _______ _______ _____ _____    ______ ____
ROOT
ATOM      1  O   HOH     1      41.334  24.271  32.996  0.00  0.00    +0.000 OA
ENDROOT
TORSDOF 0
REMARK  Name = ../refined-set-2016/3g2n/3g2n_pocket.pdb
REMARK  248 active torsions:
REMARK  status: ('A' for Active; 'I' for Inactive)
REMARK    1  A    between atoms: _1  and  _3
REMARK    2  A    between atoms: _3  and  _4
REMARK    3  A    between atoms: _3  and  _6
REMARK    4  A    between atoms: _6  and  _7
REMARK    5  A    between atoms: _12  and  _13
REMARK    6  A    between atoms: _15  and  _17
REMARK    7  A    between atoms: _17  and  _18
REMARK    8  A    between atoms: _17  and  _20
REMARK    9  A    between atoms: _20  and  _21
REMARK   10  A    between atoms: _21  and  _22
REMARK   11  A    between atoms: _25  and  _27
REMARK   12  A    between atoms: _27  and  _28
REMARK   13  A    between atoms: _27  and  _30
REMARK   14  A    between atoms: _30  and  _31
REMARK   15  A    between atoms: _36  and  _38
REMARK   16  A    between atoms: _38  and  _39
REMARK   17  A    between atoms: _41  and  _43
REMARK   18  A    between atoms: _43  and  _44
REMARK   19  A    between atoms: _46  and  _48
REMARK   20  A    between atoms: _48  and  _49
REMARK   21  A    between atoms: _48  and  _51
REMARK   22  A    between atoms: _51  and  _52
REMARK   23  A    between atoms: _55  and  _57
REMARK   24  A    between atoms: _57  and  _58
REMARK   25  A    between atoms: _60  and  _62
REMARK   26  A    between atoms: _62  and  _63
REMARK   27  A    between atoms: _62  and  _65
REMARK   28  A    between atoms: _65  and  _66
REMARK   29  A    between atoms: _66  and  _67
REMARK   30  A    between atoms: _67  and  _68
REMARK   31  A    between atoms: _77  and  _79
REMARK   32  A    between atoms: _79  and  _80
REMARK   33  A    between atoms: _79  and  _82
REMARK   34  A    between atoms: _82  and  _83
REMARK   35  A    between atoms: _86  and  _88
REMARK   36  A    between atoms: _88  and  _89
REMARK   37  A    between atoms: _92  and  _94
REMARK   38  A    between atoms: _94  and  _95
REMARK   39  A    between atoms: _94  and  _97
REMARK   40  A    between atoms: _97  and  _98
REMARK   41  A    between atoms: _104  and  _106
REMARK   42  A    between atoms: _106  and  _107
REMARK   43  A    between atoms: _106  and  _109
REMARK   44  A    between atoms: _109  and  _110
REMARK   45  A    between atoms: _115  and  _117
REMARK   46  A    between atoms: _117  and  _118
REMARK   47  A    between atoms: _117  and  _120
REMARK   48  A    between atoms: _120  and  _121
REMARK   49  A    between atoms: _124  and  _126
REMARK   50  A    between atoms: _126  and  _127
REMARK   51  A    between atoms: _126  and  _129
REMARK   52  A    between atoms: _129  and  _130
REMARK   53  A    between atoms: _135  and  _137
REMARK   54  A    between atoms: _137  and  _138
REMARK   55  A    between atoms: _137  and  _140
REMARK   56  A    between atoms: _140  and  _141
REMARK   57  A    between atoms: _147  and  _149
REMARK   58  A    between atoms: _149  and  _150
REMARK   59  A    between atoms: _149  and  _152
REMARK   60  A    between atoms: _152  and  _153
REMARK   61  A    between atoms: _159  and  _161
REMARK   62  A    between atoms: _161  and  _162
REMARK   63  A    between atoms: _161  and  _164
REMARK   64  A    between atoms: _164  and  _165
REMARK   65  A    between atoms: _165  and  _166
REMARK   66  A    between atoms: _166  and  _167
REMARK   67  A    between atoms: _176  and  _178
REMARK   68  A    between atoms: _178  and  _179
REMARK   69  A    between atoms: _178  and  _181
REMARK   70  A    between atoms: _181  and  _182
REMARK   71  A    between atoms: _187  and  _189
REMARK   72  A    between atoms: _189  and  _190
REMARK   73  A    between atoms: _189  and  _192
REMARK   74  A    between atoms: _192  and  _193
REMARK   75  A    between atoms: _196  and  _198
REMARK   76  A    between atoms: _198  and  _199
REMARK   77  A    between atoms: _198  and  _201
REMARK   78  A    between atoms: _201  and  _202
REMARK   79  A    between atoms: _205  and  _207
REMARK   80  A    between atoms: _207  and  _208
REMARK   81  A    between atoms: _207  and  _210
REMARK   82  A    between atoms: _210  and  _211
REMARK   83  A    between atoms: _216  and  _218
REMARK   84  A    between atoms: _218  and  _219
REMARK   85  A    between atoms: _218  and  _221
REMARK   86  A    between atoms: _221  and  _222
REMARK   87  A    between atoms: _227  and  _228
REMARK   88  A    between atoms: _230  and  _232
REMARK   89  A    between atoms: _232  and  _233
REMARK   90  A    between atoms: _232  and  _235
REMARK   91  A    between atoms: _235  and  _236
REMARK   92  A    between atoms: _239  and  _241
REMARK   93  A    between atoms: _241  and  _242
REMARK   94  A    between atoms: _241  and  _244
REMARK   95  A    between atoms: _244  and  _245
REMARK   96  A    between atoms: _250  and  _252
REMARK   97  A    between atoms: _252  and  _253
REMARK   98  A    between atoms: _252  and  _255
REMARK   99  A    between atoms: _255  and  _256
REMARK  100  A    between atoms: _261  and  _263
REMARK  101  A    between atoms: _263  and  _264
REMARK  102  A    between atoms: _263  and  _266
REMARK  103  A    between atoms: _266  and  _267
REMARK  104  A    between atoms: _270  and  _272
REMARK  105  A    between atoms: _272  and  _273
REMARK  106  A    between atoms: _272  and  _275
REMARK  107  A    between atoms: _278  and  _280
REMARK  108  A    between atoms: _280  and  _281
REMARK  109  A    between atoms: _280  and  _283
REMARK  110  A    between atoms: _283  and  _284
REMARK  111  A    between atoms: _287  and  _289
REMARK  112  A    between atoms: _289  and  _290
REMARK  113  A    between atoms: _289  and  _292
REMARK  114  A    between atoms: _292  and  _293
REMARK  115  A    between atoms: _293  and  _294
REMARK  116  A    between atoms: _297  and  _299
REMARK  117  A    between atoms: _299  and  _300
REMARK  118  A    between atoms: _303  and  _305
REMARK  119  A    between atoms: _305  and  _306
REMARK  120  A    between atoms: _305  and  _308
REMARK  121  A    between atoms: _308  and  _309
REMARK  122  A    between atoms: _312  and  _314
REMARK  123  A    between atoms: _314  and  _315
REMARK  124  A    between atoms: _314  and  _317
REMARK  125  A    between atoms: _317  and  _318
REMARK  126  A    between atoms: _318  and  _319
REMARK  127  A    between atoms: _322  and  _324
REMARK  128  A    between atoms: _324  and  _325
REMARK  129  A    between atoms: _324  and  _327
REMARK  130  A    between atoms: _327  and  _328
REMARK  131  A    between atoms: _333  and  _335
REMARK  132  A    between atoms: _335  and  _336
REMARK  133  A    between atoms: _338  and  _340
REMARK  134  A    between atoms: _340  and  _341
REMARK  135  A    between atoms: _340  and  _343
REMARK  136  A    between atoms: _346  and  _348
REMARK  137  A    between atoms: _348  and  _349
REMARK  138  A    between atoms: _352  and  _354
REMARK  139  A    between atoms: _354  and  _355
REMARK  140  A    between atoms: _354  and  _357
REMARK  141  A    between atoms: _357  and  _358
REMARK  142  A    between atoms: _363  and  _365
REMARK  143  A    between atoms: _365  and  _366
REMARK  144  A    between atoms: _365  and  _368
REMARK  145  A    between atoms: _368  and  _369
REMARK  146  A    between atoms: _369  and  _370
REMARK  147  A    between atoms: _370  and  _371
REMARK  148  A    between atoms: _371  and  _372
REMARK  149  A    between atoms: _376  and  _378
REMARK  150  A    between atoms: _378  and  _379
REMARK  151  A    between atoms: _378  and  _381
REMARK  152  A    between atoms: _381  and  _382
REMARK  153  A    between atoms: _385  and  _387
REMARK  154  A    between atoms: _387  and  _388
REMARK  155  A    between atoms: _387  and  _390
REMARK  156  A    between atoms: _390  and  _391
REMARK  157  A    between atoms: _396  and  _398
REMARK  158  A    between atoms: _398  and  _399
REMARK  159  A    between atoms: _401  and  _403
REMARK  160  A    between atoms: _403  and  _404
REMARK  161  A    between atoms: _403  and  _406
REMARK  162  A    between atoms: _406  and  _407
REMARK  163  A    between atoms: _407  and  _408
REMARK  164  A    between atoms: _408  and  _409
REMARK  165  A    between atoms: _409  and  _410
REMARK  166  A    between atoms: _414  and  _416
REMARK  167  A    between atoms: _416  and  _417
REMARK  168  A    between atoms: _416  and  _419
REMARK  169  A    between atoms: _419  and  _420
REMARK  170  A    between atoms: _420  and  _421
REMARK  171  A    between atoms: _421  and  _422
REMARK  172  A    between atoms: _431  and  _433
REMARK  173  A    between atoms: _433  and  _434
REMARK  174  A    between atoms: _433  and  _436
REMARK  175  A    between atoms: _436  and  _437
REMARK  176  A    between atoms: _442  and  _444
REMARK  177  A    between atoms: _444  and  _445
REMARK  178  A    between atoms: _444  and  _447
REMARK  179  A    between atoms: _447  and  _448
REMARK  180  A    between atoms: _453  and  _454
REMARK  181  A    between atoms: _456  and  _458
REMARK  182  A    between atoms: _458  and  _459
REMARK  183  A    between atoms: _458  and  _461
REMARK  184  A    between atoms: _461  and  _462
REMARK  185  A    between atoms: _462  and  _463
REMARK  186  A    between atoms: _463  and  _464
REMARK  187  A    between atoms: _464  and  _465
REMARK  188  A    between atoms: _469  and  _471
REMARK  189  A    between atoms: _471  and  _472
REMARK  190  A    between atoms: _471  and  _474
REMARK  191  A    between atoms: _474  and  _475
REMARK  192  A    between atoms: _477  and  _479
REMARK  193  A    between atoms: _479  and  _480
REMARK  194  A    between atoms: _479  and  _482
REMARK  195  A    between atoms: _482  and  _483
REMARK  196  A    between atoms: _486  and  _488
REMARK  197  A    between atoms: _488  and  _489
REMARK  198  A    between atoms: _488  and  _491
REMARK  199  A    between atoms: _491  and  _492
REMARK  200  A    between atoms: _492  and  _493
REMARK  201  A    between atoms: _496  and  _498
REMARK  202  A    between atoms: _498  and  _499
REMARK  203  A    between atoms: _502  and  _504
REMARK  204  A    between atoms: _504  and  _505
REMARK  205  A    between atoms: _504  and  _507
REMARK  206  A    between atoms: _507  and  _508
REMARK  207  A    between atoms: _510  and  _512
REMARK  208  A    between atoms: _512  and  _513
REMARK  209  A    between atoms: _515  and  _517
REMARK  210  A    between atoms: _517  and  _518
REMARK  211  A    between atoms: _517  and  _520
REMARK  212  A    between atoms: _520  and  _521
REMARK  213  A    between atoms: _524  and  _526
REMARK  214  A    between atoms: _526  and  _527
REMARK  215  A    between atoms: _529  and  _531
REMARK  216  A    between atoms: _531  and  _532
REMARK  217  A    between atoms: _531  and  _534
REMARK  218  A    between atoms: _534  and  _535
REMARK  219  A    between atoms: _540  and  _542
REMARK  220  A    between atoms: _542  and  _543
REMARK  221  A    between atoms: _542  and  _545
REMARK  222  A    between atoms: _545  and  _546
REMARK  223  A    between atoms: _546  and  _547
REMARK  224  A    between atoms: _554  and  _555
REMARK  225  A    between atoms: _555  and  _571
REMARK  226  A    between atoms: _556  and  _558
REMARK  227  A    between atoms: _558  and  _559
REMARK  228  A    between atoms: _559  and  _560
REMARK  229  A    between atoms: _564  and  _566
REMARK  230  A    between atoms: _566  and  _567
REMARK  231  A    between atoms: _566  and  _574
REMARK  232  A    between atoms: _567  and  _568
REMARK  233  A    between atoms: _568  and  _569
REMARK  234  A    between atoms: _569  and  _570
REMARK  235  A    between atoms: _570  and  _571
REMARK  236  A    between atoms: _576  and  _578
REMARK  237  A    between atoms: _578  and  _579
REMARK  238  A    between atoms: _578  and  _581
REMARK  239  A    between atoms: _581  and  _582
REMARK  240  A    between atoms: _585  and  _587
REMARK  241  A    between atoms: _587  and  _588
REMARK  242  A    between atoms: _590  and  _592
REMARK  243  A    between atoms: _592  and  _593
REMARK  244  A    between atoms: _596  and  _598
REMARK  245  A    between atoms: _598  and  _599
REMARK  246  A    between atoms: _598  and  _601
REMARK  247  A    between atoms: _601  and  _602
REMARK  248  A    between atoms: _607  and  _608
REMARK                            x       y       z     vdW  Elec       q    Type
REMARK                         _______ _______ _______ _____ _____    ______ ____
ROOT
ATOM      1  O   HOH     1      39.094  22.996  19.948  0.00  0.00    +0.000 OA
ENDROOT
TORSDOF 0
REMARK  Name = ../refined-set-2016/3g2n/3g2n_pocket.pdb
REMARK  248 active torsions:
REMARK  status: ('A' for Active; 'I' for Inactive)
REMARK    1  A    between atoms: _1  and  _3
REMARK    2  A    between atoms: _3  and  _4
REMARK    3  A    between atoms: _3  and  _6
REMARK    4  A    between atoms: _6  and  _7
REMARK    5  A    between atoms: _12  and  _13
REMARK    6  A    between atoms: _15  and  _17
REMARK    7  A    between atoms: _17  and  _18
REMARK    8  A    between atoms: _17  and  _20
REMARK    9  A    between atoms: _20  and  _21
REMARK   10  A    between atoms: _21  and  _22
REMARK   11  A    between atoms: _25  and  _27
REMARK   12  A    between atoms: _27  and  _28
REMARK   13  A    between atoms: _27  and  _30
REMARK   14  A    between atoms: _30  and  _31
REMARK   15  A    between atoms: _36  and  _38
REMARK   16  A    between atoms: _38  and  _39
REMARK   17  A    between atoms: _41  and  _43
REMARK   18  A    between atoms: _43  and  _44
REMARK   19  A    between atoms: _46  and  _48
REMARK   20  A    between atoms: _48  and  _49
REMARK   21  A    between atoms: _48  and  _51
REMARK   22  A    between atoms: _51  and  _52
REMARK   23  A    between atoms: _55  and  _57
REMARK   24  A    between atoms: _57  and  _58
REMARK   25  A    between atoms: _60  and  _62
REMARK   26  A    between atoms: _62  and  _63
REMARK   27  A    between atoms: _62  and  _65
REMARK   28  A    between atoms: _65  and  _66
REMARK   29  A    between atoms: _66  and  _67
REMARK   30  A    between atoms: _67  and  _68
REMARK   31  A    between atoms: _77  and  _79
REMARK   32  A    between atoms: _79  and  _80
REMARK   33  A    between atoms: _79  and  _82
REMARK   34  A    between atoms: _82  and  _83
REMARK   35  A    between atoms: _86  and  _88
REMARK   36  A    between atoms: _88  and  _89
REMARK   37  A    between atoms: _92  and  _94
REMARK   38  A    between atoms: _94  and  _95
REMARK   39  A    between atoms: _94  and  _97
REMARK   40  A    between atoms: _97  and  _98
REMARK   41  A    between atoms: _104  and  _106
REMARK   42  A    between atoms: _106  and  _107
REMARK   43  A    between atoms: _106  and  _109
REMARK   44  A    between atoms: _109  and  _110
REMARK   45  A    between atoms: _115  and  _117
REMARK   46  A    between atoms: _117  and  _118
REMARK   47  A    between atoms: _117  and  _120
REMARK   48  A    between atoms: _120  and  _121
REMARK   49  A    between atoms: _124  and  _126
REMARK   50  A    between atoms: _126  and  _127
REMARK   51  A    between atoms: _126  and  _129
REMARK   52  A    between atoms: _129  and  _130
REMARK   53  A    between atoms: _135  and  _137
REMARK   54  A    between atoms: _137  and  _138
REMARK   55  A    between atoms: _137  and  _140
REMARK   56  A    between atoms: _140  and  _141
REMARK   57  A    between atoms: _147  and  _149
REMARK   58  A    between atoms: _149  and  _150
REMARK   59  A    between atoms: _149  and  _152
REMARK   60  A    between atoms: _152  and  _153
REMARK   61  A    between atoms: _159  and  _161
REMARK   62  A    between atoms: _161  and  _162
REMARK   63  A    between atoms: _161  and  _164
REMARK   64  A    between atoms: _164  and  _165
REMARK   65  A    between atoms: _165  and  _166
REMARK   66  A    between atoms: _166  and  _167
REMARK   67  A    between atoms: _176  and  _178
REMARK   68  A    between atoms: _178  and  _179
REMARK   69  A    between atoms: _178  and  _181
REMARK   70  A    between atoms: _181  and  _182
REMARK   71  A    between atoms: _187  and  _189
REMARK   72  A    between atoms: _189  and  _190
REMARK   73  A    between atoms: _189  and  _192
REMARK   74  A    between atoms: _192  and  _193
REMARK   75  A    between atoms: _196  and  _198
REMARK   76  A    between atoms: _198  and  _199
REMARK   77  A    between atoms: _198  and  _201
REMARK   78  A    between atoms: _201  and  _202
REMARK   79  A    between atoms: _205  and  _207
REMARK   80  A    between atoms: _207  and  _208
REMARK   81  A    between atoms: _207  and  _210
REMARK   82  A    between atoms: _210  and  _211
REMARK   83  A    between atoms: _216  and  _218
REMARK   84  A    between atoms: _218  and  _219
REMARK   85  A    between atoms: _218  and  _221
REMARK   86  A    between atoms: _221  and  _222
REMARK   87  A    between atoms: _227  and  _228
REMARK   88  A    between atoms: _230  and  _232
REMARK   89  A    between atoms: _232  and  _233
REMARK   90  A    between atoms: _232  and  _235
REMARK   91  A    between atoms: _235  and  _236
REMARK   92  A    between atoms: _239  and  _241
REMARK   93  A    between atoms: _241  and  _242
REMARK   94  A    between atoms: _241  and  _244
REMARK   95  A    between atoms: _244  and  _245
REMARK   96  A    between atoms: _250  and  _252
REMARK   97  A    between atoms: _252  and  _253
REMARK   98  A    between atoms: _252  and  _255
REMARK   99  A    between atoms: _255  and  _256
REMARK  100  A    between atoms: _261  and  _263
REMARK  101  A    between atoms: _263  and  _264
REMARK  102  A    between atoms: _263  and  _266
REMARK  103  A    between atoms: _266  and  _267
REMARK  104  A    between atoms: _270  and  _272
REMARK  105  A    between atoms: _272  and  _273
REMARK  106  A    between atoms: _272  and  _275
REMARK  107  A    between atoms: _278  and  _280
REMARK  108  A    between atoms: _280  and  _281
REMARK  109  A    between atoms: _280  and  _283
REMARK  110  A    between atoms: _283  and  _284
REMARK  111  A    between atoms: _287  and  _289
REMARK  112  A    between atoms: _289  and  _290
REMARK  113  A    between atoms: _289  and  _292
REMARK  114  A    between atoms: _292  and  _293
REMARK  115  A    between atoms: _293  and  _294
REMARK  116  A    between atoms: _297  and  _299
REMARK  117  A    between atoms: _299  and  _300
REMARK  118  A    between atoms: _303  and  _305
REMARK  119  A    between atoms: _305  and  _306
REMARK  120  A    between atoms: _305  and  _308
REMARK  121  A    between atoms: _308  and  _309
REMARK  122  A    between atoms: _312  and  _314
REMARK  123  A    between atoms: _314  and  _315
REMARK  124  A    between atoms: _314  and  _317
REMARK  125  A    between atoms: _317  and  _318
REMARK  126  A    between atoms: _318  and  _319
REMARK  127  A    between atoms: _322  and  _324
REMARK  128  A    between atoms: _324  and  _325
REMARK  129  A    between atoms: _324  and  _327
REMARK  130  A    between atoms: _327  and  _328
REMARK  131  A    between atoms: _333  and  _335
REMARK  132  A    between atoms: _335  and  _336
REMARK  133  A    between atoms: _338  and  _340
REMARK  134  A    between atoms: _340  and  _341
REMARK  135  A    between atoms: _340  and  _343
REMARK  136  A    between atoms: _346  and  _348
REMARK  137  A    between atoms: _348  and  _349
REMARK  138  A    between atoms: _352  and  _354
REMARK  139  A    between atoms: _354  and  _355
REMARK  140  A    between atoms: _354  and  _357
REMARK  141  A    between atoms: _357  and  _358
REMARK  142  A    between atoms: _363  and  _365
REMARK  143  A    between atoms: _365  and  _366
REMARK  144  A    between atoms: _365  and  _368
REMARK  145  A    between atoms: _368  and  _369
REMARK  146  A    between atoms: _369  and  _370
REMARK  147  A    between atoms: _370  and  _371
REMARK  148  A    between atoms: _371  and  _372
REMARK  149  A    between atoms: _376  and  _378
REMARK  150  A    between atoms: _378  and  _379
REMARK  151  A    between atoms: _378  and  _381
REMARK  152  A    between atoms: _381  and  _382
REMARK  153  A    between atoms: _385  and  _387
REMARK  154  A    between atoms: _387  and  _388
REMARK  155  A    between atoms: _387  and  _390
REMARK  156  A    between atoms: _390  and  _391
REMARK  157  A    between atoms: _396  and  _398
REMARK  158  A    between atoms: _398  and  _399
REMARK  159  A    between atoms: _401  and  _403
REMARK  160  A    between atoms: _403  and  _404
REMARK  161  A    between atoms: _403  and  _406
REMARK  162  A    between atoms: _406  and  _407
REMARK  163  A    between atoms: _407  and  _408
REMARK  164  A    between atoms: _408  and  _409
REMARK  165  A    between atoms: _409  and  _410
REMARK  166  A    between atoms: _414  and  _416
REMARK  167  A    between atoms: _416  and  _417
REMARK  168  A    between atoms: _416  and  _419
REMARK  169  A    between atoms: _419  and  _420
REMARK  170  A    between atoms: _420  and  _421
REMARK  171  A    between atoms: _421  and  _422
REMARK  172  A    between atoms: _431  and  _433
REMARK  173  A    between atoms: _433  and  _434
REMARK  174  A    between atoms: _433  and  _436
REMARK  175  A    between atoms: _436  and  _437
REMARK  176  A    between atoms: _442  and  _444
REMARK  177  A    between atoms: _444  and  _445
REMARK  178  A    between atoms: _444  and  _447
REMARK  179  A    between atoms: _447  and  _448
REMARK  180  A    between atoms: _453  and  _454
REMARK  181  A    between atoms: _456  and  _458
REMARK  182  A    between atoms: _458  and  _459
REMARK  183  A    between atoms: _458  and  _461
REMARK  184  A    between atoms: _461  and  _462
REMARK  185  A    between atoms: _462  and  _463
REMARK  186  A    between atoms: _463  and  _464
REMARK  187  A    between atoms: _464  and  _465
REMARK  188  A    between atoms: _469  and  _471
REMARK  189  A    between atoms: _471  and  _472
REMARK  190  A    between atoms: _471  and  _474
REMARK  191  A    between atoms: _474  and  _475
REMARK  192  A    between atoms: _477  and  _479
REMARK  193  A    between atoms: _479  and  _480
REMARK  194  A    between atoms: _479  and  _482
REMARK  195  A    between atoms: _482  and  _483
REMARK  196  A    between atoms: _486  and  _488
REMARK  197  A    between atoms: _488  and  _489
REMARK  198  A    between atoms: _488  and  _491
REMARK  199  A    between atoms: _491  and  _492
REMARK  200  A    between atoms: _492  and  _493
REMARK  201  A    between atoms: _496  and  _498
REMARK  202  A    between atoms: _498  and  _499
REMARK  203  A    between atoms: _502  and  _504
REMARK  204  A    between atoms: _504  and  _505
REMARK  205  A    between atoms: _504  and  _507
REMARK  206  A    between atoms: _507  and  _508
REMARK  207  A    between atoms: _510  and  _512
REMARK  208  A    between atoms: _512  and  _513
REMARK  209  A    between atoms: _515  and  _517
REMARK  210  A    between atoms: _517  and  _518
REMARK  211  A    between atoms: _517  and  _520
REMARK  212  A    between atoms: _520  and  _521
REMARK  213  A    between atoms: _524  and  _526
REMARK  214  A    between atoms: _526  and  _527
REMARK  215  A    between atoms: _529  and  _531
REMARK  216  A    between atoms: _531  and  _532
REMARK  217  A    between atoms: _531  and  _534
REMARK  218  A    between atoms: _534  and  _535
REMARK  219  A    between atoms: _540  and  _542
REMARK  220  A    between atoms: _542  and  _543
REMARK  221  A    between atoms: _542  and  _545
REMARK  222  A    between atoms: _545  and  _546
REMARK  223  A    between atoms: _546  and  _547
REMARK  224  A    between atoms: _554  and  _555
REMARK  225  A    between atoms: _555  and  _571
REMARK  226  A    between atoms: _556  and  _558
REMARK  227  A    between atoms: _558  and  _559
REMARK  228  A    between atoms: _559  and  _560
REMARK  229  A    between atoms: _564  and  _566
REMARK  230  A    between atoms: _566  and  _567
REMARK  231  A    between atoms: _566  and  _574
REMARK  232  A    between atoms: _567  and  _568
REMARK  233  A    between atoms: _568  and  _569
REMARK  234  A    between atoms: _569  and  _570
REMARK  235  A    between atoms: _570  and  _571
REMARK  236  A    between atoms: _576  and  _578
REMARK  237  A    between atoms: _578  and  _579
REMARK  238  A    between atoms: _578  and  _581
REMARK  239  A    between atoms: _581  and  _582
REMARK  240  A    between atoms: _585  and  _587
REMARK  241  A    between atoms: _587  and  _588
REMARK  242  A    between atoms: _590  and  _592
REMARK  243  A    between atoms: _592  and  _593
REMARK  244  A    between atoms: _596  and  _598
REMARK  245  A    between atoms: _598  and  _599
REMARK  246  A    between atoms: _598  and  _601
REMARK  247  A    between atoms: _601  and  _602
REMARK  248  A    between atoms: _607  and  _608
REMARK                            x       y       z     vdW  Elec       q    Type
REMARK                         _______ _______ _______ _____ _____    ______ ____
ROOT
ATOM      1  O   HOH     1      36.293  26.197  35.400  0.00  0.00    +0.000 OA
ENDROOT
TORSDOF 0
REMARK  Name = ../refined-set-2016/3g2n/3g2n_pocket.pdb
REMARK  248 active torsions:
REMARK  status: ('A' for Active; 'I' for Inactive)
REMARK    1  A    between atoms: _1  and  _3
REMARK    2  A    between atoms: _3  and  _4
REMARK    3  A    between atoms: _3  and  _6
REMARK    4  A    between atoms: _6  and  _7
REMARK    5  A    between atoms: _12  and  _13
REMARK    6  A    between atoms: _15  and  _17
REMARK    7  A    between atoms: _17  and  _18
REMARK    8  A    between atoms: _17  and  _20
REMARK    9  A    between atoms: _20  and  _21
REMARK   10  A    between atoms: _21  and  _22
REMARK   11  A    between atoms: _25  and  _27
REMARK   12  A    between atoms: _27  and  _28
REMARK   13  A    between atoms: _27  and  _30
REMARK   14  A    between atoms: _30  and  _31
REMARK   15  A    between atoms: _36  and  _38
REMARK   16  A    between atoms: _38  and  _39
REMARK   17  A    between atoms: _41  and  _43
REMARK   18  A    between atoms: _43  and  _44
REMARK   19  A    between atoms: _46  and  _48
REMARK   20  A    between atoms: _48  and  _49
REMARK   21  A    between atoms: _48  and  _51
REMARK   22  A    between atoms: _51  and  _52
REMARK   23  A    between atoms: _55  and  _57
REMARK   24  A    between atoms: _57  and  _58
REMARK   25  A    between atoms: _60  and  _62
REMARK   26  A    between atoms: _62  and  _63
REMARK   27  A    between atoms: _62  and  _65
REMARK   28  A    between atoms: _65  and  _66
REMARK   29  A    between atoms: _66  and  _67
REMARK   30  A    between atoms: _67  and  _68
REMARK   31  A    between atoms: _77  and  _79
REMARK   32  A    between atoms: _79  and  _80
REMARK   33  A    between atoms: _79  and  _82
REMARK   34  A    between atoms: _82  and  _83
REMARK   35  A    between atoms: _86  and  _88
REMARK   36  A    between atoms: _88  and  _89
REMARK   37  A    between atoms: _92  and  _94
REMARK   38  A    between atoms: _94  and  _95
REMARK   39  A    between atoms: _94  and  _97
REMARK   40  A    between atoms: _97  and  _98
REMARK   41  A    between atoms: _104  and  _106
REMARK   42  A    between atoms: _106  and  _107
REMARK   43  A    between atoms: _106  and  _109
REMARK   44  A    between atoms: _109  and  _110
REMARK   45  A    between atoms: _115  and  _117
REMARK   46  A    between atoms: _117  and  _118
REMARK   47  A    between atoms: _117  and  _120
REMARK   48  A    between atoms: _120  and  _121
REMARK   49  A    between atoms: _124  and  _126
REMARK   50  A    between atoms: _126  and  _127
REMARK   51  A    between atoms: _126  and  _129
REMARK   52  A    between atoms: _129  and  _130
REMARK   53  A    between atoms: _135  and  _137
REMARK   54  A    between atoms: _137  and  _138
REMARK   55  A    between atoms: _137  and  _140
REMARK   56  A    between atoms: _140  and  _141
REMARK   57  A    between atoms: _147  and  _149
REMARK   58  A    between atoms: _149  and  _150
REMARK   59  A    between atoms: _149  and  _152
REMARK   60  A    between atoms: _152  and  _153
REMARK   61  A    between atoms: _159  and  _161
REMARK   62  A    between atoms: _161  and  _162
REMARK   63  A    between atoms: _161  and  _164
REMARK   64  A    between atoms: _164  and  _165
REMARK   65  A    between atoms: _165  and  _166
REMARK   66  A    between atoms: _166  and  _167
REMARK   67  A    between atoms: _176  and  _178
REMARK   68  A    between atoms: _178  and  _179
REMARK   69  A    between atoms: _178  and  _181
REMARK   70  A    between atoms: _181  and  _182
REMARK   71  A    between atoms: _187  and  _189
REMARK   72  A    between atoms: _189  and  _190
REMARK   73  A    between atoms: _189  and  _192
REMARK   74  A    between atoms: _192  and  _193
REMARK   75  A    between atoms: _196  and  _198
REMARK   76  A    between atoms: _198  and  _199
REMARK   77  A    between atoms: _198  and  _201
REMARK   78  A    between atoms: _201  and  _202
REMARK   79  A    between atoms: _205  and  _207
REMARK   80  A    between atoms: _207  and  _208
REMARK   81  A    between atoms: _207  and  _210
REMARK   82  A    between atoms: _210  and  _211
REMARK   83  A    between atoms: _216  and  _218
REMARK   84  A    between atoms: _218  and  _219
REMARK   85  A    between atoms: _218  and  _221
REMARK   86  A    between atoms: _221  and  _222
REMARK   87  A    between atoms: _227  and  _228
REMARK   88  A    between atoms: _230  and  _232
REMARK   89  A    between atoms: _232  and  _233
REMARK   90  A    between atoms: _232  and  _235
REMARK   91  A    between atoms: _235  and  _236
REMARK   92  A    between atoms: _239  and  _241
REMARK   93  A    between atoms: _241  and  _242
REMARK   94  A    between atoms: _241  and  _244
REMARK   95  A    between atoms: _244  and  _245
REMARK   96  A    between atoms: _250  and  _252
REMARK   97  A    between atoms: _252  and  _253
REMARK   98  A    between atoms: _252  and  _255
REMARK   99  A    between atoms: _255  and  _256
REMARK  100  A    between atoms: _261  and  _263
REMARK  101  A    between atoms: _263  and  _264
REMARK  102  A    between atoms: _263  and  _266
REMARK  103  A    between atoms: _266  and  _267
REMARK  104  A    between atoms: _270  and  _272
REMARK  105  A    between atoms: _272  and  _273
REMARK  106  A    between atoms: _272  and  _275
REMARK  107  A    between atoms: _278  and  _280
REMARK  108  A    between atoms: _280  and  _281
REMARK  109  A    between atoms: _280  and  _283
REMARK  110  A    between atoms: _283  and  _284
REMARK  111  A    between atoms: _287  and  _289
REMARK  112  A    between atoms: _289  and  _290
REMARK  113  A    between atoms: _289  and  _292
REMARK  114  A    between atoms: _292  and  _293
REMARK  115  A    between atoms: _293  and  _294
REMARK  116  A    between atoms: _297  and  _299
REMARK  117  A    between atoms: _299  and  _300
REMARK  118  A    between atoms: _303  and  _305
REMARK  119  A    between atoms: _305  and  _306
REMARK  120  A    between atoms: _305  and  _308
REMARK  121  A    between atoms: _308  and  _309
REMARK  122  A    between atoms: _312  and  _314
REMARK  123  A    between atoms: _314  and  _315
REMARK  124  A    between atoms: _314  and  _317
REMARK  125  A    between atoms: _317  and  _318
REMARK  126  A    between atoms: _318  and  _319
REMARK  127  A    between atoms: _322  and  _324
REMARK  128  A    between atoms: _324  and  _325
REMARK  129  A    between atoms: _324  and  _327
REMARK  130  A    between atoms: _327  and  _328
REMARK  131  A    between atoms: _333  and  _335
REMARK  132  A    between atoms: _335  and  _336
REMARK  133  A    between atoms: _338  and  _340
REMARK  134  A    between atoms: _340  and  _341
REMARK  135  A    between atoms: _340  and  _343
REMARK  136  A    between atoms: _346  and  _348
REMARK  137  A    between atoms: _348  and  _349
REMARK  138  A    between atoms: _352  and  _354
REMARK  139  A    between atoms: _354  and  _355
REMARK  140  A    between atoms: _354  and  _357
REMARK  141  A    between atoms: _357  and  _358
REMARK  142  A    between atoms: _363  and  _365
REMARK  143  A    between atoms: _365  and  _366
REMARK  144  A    between atoms: _365  and  _368
REMARK  145  A    between atoms: _368  and  _369
REMARK  146  A    between atoms: _369  and  _370
REMARK  147  A    between atoms: _370  and  _371
REMARK  148  A    between atoms: _371  and  _372
REMARK  149  A    between atoms: _376  and  _378
REMARK  150  A    between atoms: _378  and  _379
REMARK  151  A    between atoms: _378  and  _381
REMARK  152  A    between atoms: _381  and  _382
REMARK  153  A    between atoms: _385  and  _387
REMARK  154  A    between atoms: _387  and  _388
REMARK  155  A    between atoms: _387  and  _390
REMARK  156  A    between atoms: _390  and  _391
REMARK  157  A    between atoms: _396  and  _398
REMARK  158  A    between atoms: _398  and  _399
REMARK  159  A    between atoms: _401  and  _403
REMARK  160  A    between atoms: _403  and  _404
REMARK  161  A    between atoms: _403  and  _406
REMARK  162  A    between atoms: _406  and  _407
REMARK  163  A    between atoms: _407  and  _408
REMARK  164  A    between atoms: _408  and  _409
REMARK  165  A    between atoms: _409  and  _410
REMARK  166  A    between atoms: _414  and  _416
REMARK  167  A    between atoms: _416  and  _417
REMARK  168  A    between atoms: _416  and  _419
REMARK  169  A    between atoms: _419  and  _420
REMARK  170  A    between atoms: _420  and  _421
REMARK  171  A    between atoms: _421  and  _422
REMARK  172  A    between atoms: _431  and  _433
REMARK  173  A    between atoms: _433  and  _434
REMARK  174  A    between atoms: _433  and  _436
REMARK  175  A    between atoms: _436  and  _437
REMARK  176  A    between atoms: _442  and  _444
REMARK  177  A    between atoms: _444  and  _445
REMARK  178  A    between atoms: _444  and  _447
REMARK  179  A    between atoms: _447  and  _448
REMARK  180  A    between atoms: _453  and  _454
REMARK  181  A    between atoms: _456  and  _458
REMARK  182  A    between atoms: _458  and  _459
REMARK  183  A    between atoms: _458  and  _461
REMARK  184  A    between atoms: _461  and  _462
REMARK  185  A    between atoms: _462  and  _463
REMARK  186  A    between atoms: _463  and  _464
REMARK  187  A    between atoms: _464  and  _465
REMARK  188  A    between atoms: _469  and  _471
REMARK  189  A    between atoms: _471  and  _472
REMARK  190  A    between atoms: _471  and  _474
REMARK  191  A    between atoms: _474  and  _475
REMARK  192  A    between atoms: _477  and  _479
REMARK  193  A    between atoms: _479  and  _480
REMARK  194  A    between atoms: _479  and  _482
REMARK  195  A    between atoms: _482  and  _483
REMARK  196  A    between atoms: _486  and  _488
REMARK  197  A    between atoms: _488  and  _489
REMARK  198  A    between atoms: _488  and  _491
REMARK  199  A    between atoms: _491  and  _492
REMARK  200  A    between atoms: _492  and  _493
REMARK  201  A    between atoms: _496  and  _498
REMARK  202  A    between atoms: _498  and  _499
REMARK  203  A    between atoms: _502  and  _504
REMARK  204  A    between atoms: _504  and  _505
REMARK  205  A    between atoms: _504  and  _507
REMARK  206  A    between atoms: _507  and  _508
REMARK  207  A    between atoms: _510  and  _512
REMARK  208  A    between atoms: _512  and  _513
REMARK  209  A    between atoms: _515  and  _517
REMARK  210  A    between atoms: _517  and  _518
REMARK  211  A    between atoms: _517  and  _520
REMARK  212  A    between atoms: _520  and  _521
REMARK  213  A    between atoms: _524  and  _526
REMARK  214  A    between atoms: _526  and  _527
REMARK  215  A    between atoms: _529  and  _531
REMARK  216  A    between atoms: _531  and  _532
REMARK  217  A    between atoms: _531  and  _534
REMARK  218  A    between atoms: _534  and  _535
REMARK  219  A    between atoms: _540  and  _542
REMARK  220  A    between atoms: _542  and  _543
REMARK  221  A    between atoms: _542  and  _545
REMARK  222  A    between atoms: _545  and  _546
REMARK  223  A    between atoms: _546  and  _547
REMARK  224  A    between atoms: _554  and  _555
REMARK  225  A    between atoms: _555  and  _571
REMARK  226  A    between atoms: _556  and  _558
REMARK  227  A    between atoms: _558  and  _559
REMARK  228  A    between atoms: _559  and  _560
REMARK  229  A    between atoms: _564  and  _566
REMARK  230  A    between atoms: _566  and  _567
REMARK  231  A    between atoms: _566  and  _574
REMARK  232  A    between atoms: _567  and  _568
REMARK  233  A    between atoms: _568  and  _569
REMARK  234  A    between atoms: _569  and  _570
REMARK  235  A    between atoms: _570  and  _571
REMARK  236  A    between atoms: _576  and  _578
REMARK  237  A    between atoms: _578  and  _579
REMARK  238  A    between atoms: _578  and  _581
REMARK  239  A    between atoms: _581  and  _582
REMARK  240  A    between atoms: _585  and  _587
REMARK  241  A    between atoms: _587  and  _588
REMARK  242  A    between atoms: _590  and  _592
REMARK  243  A    between atoms: _592  and  _593
REMARK  244  A    between atoms: _596  and  _598
REMARK  245  A    between atoms: _598  and  _599
REMARK  246  A    between atoms: _598  and  _601
REMARK  247  A    between atoms: _601  and  _602
REMARK  248  A    between atoms: _607  and  _608
REMARK                            x       y       z     vdW  Elec       q    Type
REMARK                         _______ _______ _______ _____ _____    ______ ____
ROOT
ATOM      1  O   HOH     1      32.735  31.205  28.466  0.00  0.00    +0.000 OA
ENDROOT
TORSDOF 0
