REMARK  Name = ../refined-set-2016/4q9y/4q9y_pocket.pdb
REMARK  126 active torsions:
REMARK  status: ('A' for Active; 'I' for Inactive)
REMARK    1  A    between atoms: _1  and  _3
REMARK    2  A    between atoms: _3  and  _4
REMARK    3  A    between atoms: _3  and  _6
REMARK    4  A    between atoms: _6  and  _7
REMARK    5  A    between atoms: _17  and  _19
REMARK    6  A    between atoms: _19  and  _20
REMARK    7  A    between atoms: _19  and  _22
REMARK    8  A    between atoms: _22  and  _23
REMARK    9  A    between atoms: _28  and  _29
REMARK   10  A    between atoms: _31  and  _33
REMARK   11  A    between atoms: _33  and  _34
REMARK   12  A    between atoms: _33  and  _36
REMARK   13  A    between atoms: _36  and  _37
REMARK   14  A    between atoms: _39  and  _41
REMARK   15  A    between atoms: _41  and  _42
REMARK   16  A    between atoms: _41  and  _44
REMARK   17  A    between atoms: _44  and  _45
REMARK   18  A    between atoms: _50  and  _52
REMARK   19  A    between atoms: _52  and  _53
REMARK   20  A    between atoms: _52  and  _55
REMARK   21  A    between atoms: _55  and  _56
REMARK   22  A    between atoms: _61  and  _63
REMARK   23  A    between atoms: _63  and  _64
REMARK   24  A    between atoms: _63  and  _66
REMARK   25  A    between atoms: _66  and  _67
REMARK   26  A    between atoms: _70  and  _72
REMARK   27  A    between atoms: _72  and  _73
REMARK   28  A    between atoms: _72  and  _75
REMARK   29  A    between atoms: _75  and  _76
REMARK   30  A    between atoms: _76  and  _77
REMARK   31  A    between atoms: _82  and  _84
REMARK   32  A    between atoms: _95  and  _98
REMARK   33  A    between atoms: _98  and  _99
REMARK   34  A    between atoms: _107  and  _108
REMARK   35  A    between atoms: _116  and  _118
REMARK   36  A    between atoms: _118  and  _119
REMARK   37  A    between atoms: _118  and  _121
REMARK   38  A    between atoms: _121  and  _122
REMARK   39  A    between atoms: _122  and  _123
REMARK   40  A    between atoms: _126  and  _128
REMARK   41  A    between atoms: _128  and  _129
REMARK   42  A    between atoms: _128  and  _131
REMARK   43  A    between atoms: _131  and  _132
REMARK   44  A    between atoms: _132  and  _133
REMARK   45  A    between atoms: _136  and  _138
REMARK   46  A    between atoms: _138  and  _139
REMARK   47  A    between atoms: _138  and  _141
REMARK   48  A    between atoms: _141  and  _142
REMARK   49  A    between atoms: _143  and  ZN_353
REMARK   50  A    between atoms: _147  and  _149
REMARK   51  A    between atoms: _149  and  _150
REMARK   52  A    between atoms: _149  and  _152
REMARK   53  A    between atoms: _152  and  _153
REMARK   54  A    between atoms: _156  and  _158
REMARK   55  A    between atoms: _158  and  _159
REMARK   56  A    between atoms: _158  and  _161
REMARK   57  A    between atoms: _164  and  _166
REMARK   58  A    between atoms: _166  and  _167
REMARK   59  A    between atoms: _166  and  _169
REMARK   60  A    between atoms: _169  and  _170
REMARK   61  A    between atoms: _175  and  _177
REMARK   62  A    between atoms: _177  and  _178
REMARK   63  A    between atoms: _177  and  _180
REMARK   64  A    between atoms: _180  and  _181
REMARK   65  A    between atoms: _187  and  _189
REMARK   66  A    between atoms: _189  and  _190
REMARK   67  A    between atoms: _189  and  _192
REMARK   68  A    between atoms: _195  and  _197
REMARK   69  A    between atoms: _197  and  _198
REMARK   70  A    between atoms: _197  and  _200
REMARK   71  A    between atoms: _200  and  _201
REMARK   72  A    between atoms: _204  and  _206
REMARK   73  A    between atoms: _206  and  _207
REMARK   74  A    between atoms: _210  and  _212
REMARK   75  A    between atoms: _212  and  _213
REMARK   76  A    between atoms: _212  and  _215
REMARK   77  A    between atoms: _218  and  _220
REMARK   78  A    between atoms: _220  and  _221
REMARK   79  A    between atoms: _220  and  _223
REMARK   80  A    between atoms: _223  and  _224
REMARK   81  A    between atoms: _227  and  _229
REMARK   82  A    between atoms: _229  and  _230
REMARK   83  A    between atoms: _229  and  _232
REMARK   84  A    between atoms: _232  and  _233
REMARK   85  A    between atoms: _235  and  _237
REMARK   86  A    between atoms: _237  and  _238
REMARK   87  A    between atoms: _237  and  _240
REMARK   88  A    between atoms: _240  and  _241
REMARK   89  A    between atoms: _244  and  _246
REMARK   90  A    between atoms: _246  and  _247
REMARK   91  A    between atoms: _246  and  _249
REMARK   92  A    between atoms: _249  and  _250
REMARK   93  A    between atoms: _253  and  _255
REMARK   94  A    between atoms: _255  and  _256
REMARK   95  A    between atoms: _255  and  _258
REMARK   96  A    between atoms: _258  and  _259
REMARK   97  A    between atoms: _263  and  _264
REMARK   98  A    between atoms: _270  and  _271
REMARK   99  A    between atoms: _276  and  _278
REMARK  100  A    between atoms: _278  and  _279
REMARK  101  A    between atoms: _278  and  _281
REMARK  102  A    between atoms: _281  and  _282
REMARK  103  A    between atoms: _285  and  _287
REMARK  104  A    between atoms: _287  and  _288
REMARK  105  A    between atoms: _287  and  _290
REMARK  106  A    between atoms: _290  and  _291
REMARK  107  A    between atoms: _294  and  _296
REMARK  108  A    between atoms: _296  and  _297
REMARK  109  A    between atoms: _296  and  _299
REMARK  110  A    between atoms: _301  and  _303
REMARK  111  A    between atoms: _303  and  _304
REMARK  112  A    between atoms: _303  and  _306
REMARK  113  A    between atoms: _309  and  _311
REMARK  114  A    between atoms: _311  and  _312
REMARK  115  A    between atoms: _311  and  _314
REMARK  116  A    between atoms: _314  and  _315
REMARK  117  A    between atoms: _325  and  _327
REMARK  118  A    between atoms: _327  and  _328
REMARK  119  A    between atoms: _327  and  _330
REMARK  120  A    between atoms: _330  and  _331
REMARK  121  A    between atoms: _336  and  _338
REMARK  122  A    between atoms: _338  and  _339
REMARK  123  A    between atoms: _338  and  _341
REMARK  124  A    between atoms: _341  and  _342
REMARK  125  A    between atoms: _342  and  _343
REMARK  126  A    between atoms: _343  and  _344
REMARK                            x       y       z     vdW  Elec       q    Type
REMARK                         _______ _______ _______ _____ _____    ______ ____
ROOT
ATOM      1  CG  TRP A   1      26.772  -0.256  11.982  0.00  0.00    -0.002 A 
ATOM      2  CD2 TRP A   1      25.417  -0.762  11.999  0.00  0.00    +0.013 A 
ATOM      3  CE3 TRP A   1      24.862  -2.020  12.213  0.00  0.00    +0.001 A 
ATOM      4  CZ3 TRP A   1      23.400  -2.148  12.086  0.00  0.00    +0.000 A 
ATOM      5  CH2 TRP A   1      22.615  -1.060  11.772  0.00  0.00    +0.001 A 
ATOM      6  CZ2 TRP A   1      23.173   0.149  11.509  0.00  0.00    +0.017 A 
ATOM      7  CE2 TRP A   1      24.579   0.299  11.640  0.00  0.00    +0.056 A 
ATOM      8  NE1 TRP A   1      25.345   1.427  11.420  0.00  0.00    -0.352 N 
ATOM      9  HE1 TRP A   1      24.997   2.359  11.118  0.00  0.00    +0.166 HD
ATOM     10  CD1 TRP A   1      26.656   1.088  11.675  0.00  0.00    +0.068 A 
ENDROOT
BRANCH   1  11
ATOM     11  CB  TRP A   1      28.038  -1.037  12.355  0.00  0.00    +0.053 C 
BRANCH  11  12
ATOM     12  CA  TRP A   1      28.719  -1.708  11.159  0.00  0.00    +0.137 C 
BRANCH  12  13
ATOM     13  N   TRP A   1      29.369  -0.693  10.345  0.00  0.00    -0.239 NA
ATOM     14  H   TRP A   1      29.087   0.306  10.403  0.00  0.00    +0.142 HD
ENDBRANCH  12  13
BRANCH  12  15
ATOM     15  C   TRP A   1      27.701  -2.525  10.367  0.00  0.00    +0.224 C 
ATOM     16  O   TRP A   1      27.101  -2.071   9.336  0.00  0.00    -0.287 OA
ENDBRANCH  12  15
ENDBRANCH  11  12
ENDBRANCH   1  11
TORSDOF 4
REMARK  Name = ../refined-set-2016/4q9y/4q9y_pocket.pdb
REMARK  126 active torsions:
REMARK  status: ('A' for Active; 'I' for Inactive)
REMARK    1  A    between atoms: _1  and  _3
REMARK    2  A    between atoms: _3  and  _4
REMARK    3  A    between atoms: _3  and  _6
REMARK    4  A    between atoms: _6  and  _7
REMARK    5  A    between atoms: _17  and  _19
REMARK    6  A    between atoms: _19  and  _20
REMARK    7  A    between atoms: _19  and  _22
REMARK    8  A    between atoms: _22  and  _23
REMARK    9  A    between atoms: _28  and  _29
REMARK   10  A    between atoms: _31  and  _33
REMARK   11  A    between atoms: _33  and  _34
REMARK   12  A    between atoms: _33  and  _36
REMARK   13  A    between atoms: _36  and  _37
REMARK   14  A    between atoms: _39  and  _41
REMARK   15  A    between atoms: _41  and  _42
REMARK   16  A    between atoms: _41  and  _44
REMARK   17  A    between atoms: _44  and  _45
REMARK   18  A    between atoms: _50  and  _52
REMARK   19  A    between atoms: _52  and  _53
REMARK   20  A    between atoms: _52  and  _55
REMARK   21  A    between atoms: _55  and  _56
REMARK   22  A    between atoms: _61  and  _63
REMARK   23  A    between atoms: _63  and  _64
REMARK   24  A    between atoms: _63  and  _66
REMARK   25  A    between atoms: _66  and  _67
REMARK   26  A    between atoms: _70  and  _72
REMARK   27  A    between atoms: _72  and  _73
REMARK   28  A    between atoms: _72  and  _75
REMARK   29  A    between atoms: _75  and  _76
REMARK   30  A    between atoms: _76  and  _77
REMARK   31  A    between atoms: _82  and  _84
REMARK   32  A    between atoms: _95  and  _98
REMARK   33  A    between atoms: _98  and  _99
REMARK   34  A    between atoms: _107  and  _108
REMARK   35  A    between atoms: _116  and  _118
REMARK   36  A    between atoms: _118  and  _119
REMARK   37  A    between atoms: _118  and  _121
REMARK   38  A    between atoms: _121  and  _122
REMARK   39  A    between atoms: _122  and  _123
REMARK   40  A    between atoms: _126  and  _128
REMARK   41  A    between atoms: _128  and  _129
REMARK   42  A    between atoms: _128  and  _131
REMARK   43  A    between atoms: _131  and  _132
REMARK   44  A    between atoms: _132  and  _133
REMARK   45  A    between atoms: _136  and  _138
REMARK   46  A    between atoms: _138  and  _139
REMARK   47  A    between atoms: _138  and  _141
REMARK   48  A    between atoms: _141  and  _142
REMARK   49  A    between atoms: _143  and  ZN_353
REMARK   50  A    between atoms: _147  and  _149
REMARK   51  A    between atoms: _149  and  _150
REMARK   52  A    between atoms: _149  and  _152
REMARK   53  A    between atoms: _152  and  _153
REMARK   54  A    between atoms: _156  and  _158
REMARK   55  A    between atoms: _158  and  _159
REMARK   56  A    between atoms: _158  and  _161
REMARK   57  A    between atoms: _164  and  _166
REMARK   58  A    between atoms: _166  and  _167
REMARK   59  A    between atoms: _166  and  _169
REMARK   60  A    between atoms: _169  and  _170
REMARK   61  A    between atoms: _175  and  _177
REMARK   62  A    between atoms: _177  and  _178
REMARK   63  A    between atoms: _177  and  _180
REMARK   64  A    between atoms: _180  and  _181
REMARK   65  A    between atoms: _187  and  _189
REMARK   66  A    between atoms: _189  and  _190
REMARK   67  A    between atoms: _189  and  _192
REMARK   68  A    between atoms: _195  and  _197
REMARK   69  A    between atoms: _197  and  _198
REMARK   70  A    between atoms: _197  and  _200
REMARK   71  A    between atoms: _200  and  _201
REMARK   72  A    between atoms: _204  and  _206
REMARK   73  A    between atoms: _206  and  _207
REMARK   74  A    between atoms: _210  and  _212
REMARK   75  A    between atoms: _212  and  _213
REMARK   76  A    between atoms: _212  and  _215
REMARK   77  A    between atoms: _218  and  _220
REMARK   78  A    between atoms: _220  and  _221
REMARK   79  A    between atoms: _220  and  _223
REMARK   80  A    between atoms: _223  and  _224
REMARK   81  A    between atoms: _227  and  _229
REMARK   82  A    between atoms: _229  and  _230
REMARK   83  A    between atoms: _229  and  _232
REMARK   84  A    between atoms: _232  and  _233
REMARK   85  A    between atoms: _235  and  _237
REMARK   86  A    between atoms: _237  and  _238
REMARK   87  A    between atoms: _237  and  _240
REMARK   88  A    between atoms: _240  and  _241
REMARK   89  A    between atoms: _244  and  _246
REMARK   90  A    between atoms: _246  and  _247
REMARK   91  A    between atoms: _246  and  _249
REMARK   92  A    between atoms: _249  and  _250
REMARK   93  A    between atoms: _253  and  _255
REMARK   94  A    between atoms: _255  and  _256
REMARK   95  A    between atoms: _255  and  _258
REMARK   96  A    between atoms: _258  and  _259
REMARK   97  A    between atoms: _263  and  _264
REMARK   98  A    between atoms: _270  and  _271
REMARK   99  A    between atoms: _276  and  _278
REMARK  100  A    between atoms: _278  and  _279
REMARK  101  A    between atoms: _278  and  _281
REMARK  102  A    between atoms: _281  and  _282
REMARK  103  A    between atoms: _285  and  _287
REMARK  104  A    between atoms: _287  and  _288
REMARK  105  A    between atoms: _287  and  _290
REMARK  106  A    between atoms: _290  and  _291
REMARK  107  A    between atoms: _294  and  _296
REMARK  108  A    between atoms: _296  and  _297
REMARK  109  A    between atoms: _296  and  _299
REMARK  110  A    between atoms: _301  and  _303
REMARK  111  A    between atoms: _303  and  _304
REMARK  112  A    between atoms: _303  and  _306
REMARK  113  A    between atoms: _309  and  _311
REMARK  114  A    between atoms: _311  and  _312
REMARK  115  A    between atoms: _311  and  _314
REMARK  116  A    between atoms: _314  and  _315
REMARK  117  A    between atoms: _325  and  _327
REMARK  118  A    between atoms: _327  and  _328
REMARK  119  A    between atoms: _327  and  _330
REMARK  120  A    between atoms: _330  and  _331
REMARK  121  A    between atoms: _336  and  _338
REMARK  122  A    between atoms: _338  and  _339
REMARK  123  A    between atoms: _338  and  _341
REMARK  124  A    between atoms: _341  and  _342
REMARK  125  A    between atoms: _342  and  _343
REMARK  126  A    between atoms: _343  and  _344
REMARK                            x       y       z     vdW  Elec       q    Type
REMARK                         _______ _______ _______ _____ _____    ______ ____
ROOT
ATOM      1  CG  TYR A   1      23.054  -7.392  11.818  0.00  0.00    -0.020 A 
ATOM      2  CD2 TYR A   1      22.666  -7.400  13.169  0.00  0.00    -0.001 A 
ATOM      3  CE2 TYR A   1      21.824  -6.391  13.625  0.00  0.00    +0.036 A 
ATOM      4  CZ  TYR A   1      21.322  -5.421  12.787  0.00  0.00    +0.134 A 
ATOM      5  CE1 TYR A   1      21.711  -5.337  11.459  0.00  0.00    +0.036 A 
ATOM      6  CD1 TYR A   1      22.546  -6.371  10.975  0.00  0.00    -0.001 A 
ENDROOT
BRANCH   4   7
ATOM      7  OH  TYR A   1      20.514  -4.423  13.150  0.00  0.00    -0.506 OA
ATOM      8  HH  TYR A   1      20.267  -4.530  14.103  0.00  0.00    +0.292 HD
ENDBRANCH   4   7
BRANCH   1   9
ATOM      9  CB  TYR A   1      23.990  -8.495  11.283  0.00  0.00    +0.051 C 
BRANCH   9  10
ATOM     10  CA  TYR A   1      25.476  -8.109  11.510  0.00  0.00    +0.137 C 
BRANCH  10  11
ATOM     11  N   TYR A   1      25.838  -6.957  10.707  0.00  0.00    -0.239 NA
ATOM     12  H   TYR A   1      25.865  -7.048   9.671  0.00  0.00    +0.142 HD
ENDBRANCH  10  11
BRANCH  10  13
ATOM     13  C   TYR A   1      26.365  -9.327  11.276  0.00  0.00    +0.224 C 
ATOM     14  O   TYR A   1      26.044 -10.413  11.739  0.00  0.00    -0.287 OA
ENDBRANCH  10  13
ENDBRANCH   9  10
ENDBRANCH   1   9
TORSDOF 5
REMARK  Name = ../refined-set-2016/4q9y/4q9y_pocket.pdb
REMARK  126 active torsions:
REMARK  status: ('A' for Active; 'I' for Inactive)
REMARK    1  A    between atoms: _1  and  _3
REMARK    2  A    between atoms: _3  and  _4
REMARK    3  A    between atoms: _3  and  _6
REMARK    4  A    between atoms: _6  and  _7
REMARK    5  A    between atoms: _17  and  _19
REMARK    6  A    between atoms: _19  and  _20
REMARK    7  A    between atoms: _19  and  _22
REMARK    8  A    between atoms: _22  and  _23
REMARK    9  A    between atoms: _28  and  _29
REMARK   10  A    between atoms: _31  and  _33
REMARK   11  A    between atoms: _33  and  _34
REMARK   12  A    between atoms: _33  and  _36
REMARK   13  A    between atoms: _36  and  _37
REMARK   14  A    between atoms: _39  and  _41
REMARK   15  A    between atoms: _41  and  _42
REMARK   16  A    between atoms: _41  and  _44
REMARK   17  A    between atoms: _44  and  _45
REMARK   18  A    between atoms: _50  and  _52
REMARK   19  A    between atoms: _52  and  _53
REMARK   20  A    between atoms: _52  and  _55
REMARK   21  A    between atoms: _55  and  _56
REMARK   22  A    between atoms: _61  and  _63
REMARK   23  A    between atoms: _63  and  _64
REMARK   24  A    between atoms: _63  and  _66
REMARK   25  A    between atoms: _66  and  _67
REMARK   26  A    between atoms: _70  and  _72
REMARK   27  A    between atoms: _72  and  _73
REMARK   28  A    between atoms: _72  and  _75
REMARK   29  A    between atoms: _75  and  _76
REMARK   30  A    between atoms: _76  and  _77
REMARK   31  A    between atoms: _82  and  _84
REMARK   32  A    between atoms: _95  and  _98
REMARK   33  A    between atoms: _98  and  _99
REMARK   34  A    between atoms: _107  and  _108
REMARK   35  A    between atoms: _116  and  _118
REMARK   36  A    between atoms: _118  and  _119
REMARK   37  A    between atoms: _118  and  _121
REMARK   38  A    between atoms: _121  and  _122
REMARK   39  A    between atoms: _122  and  _123
REMARK   40  A    between atoms: _126  and  _128
REMARK   41  A    between atoms: _128  and  _129
REMARK   42  A    between atoms: _128  and  _131
REMARK   43  A    between atoms: _131  and  _132
REMARK   44  A    between atoms: _132  and  _133
REMARK   45  A    between atoms: _136  and  _138
REMARK   46  A    between atoms: _138  and  _139
REMARK   47  A    between atoms: _138  and  _141
REMARK   48  A    between atoms: _141  and  _142
REMARK   49  A    between atoms: _143  and  ZN_353
REMARK   50  A    between atoms: _147  and  _149
REMARK   51  A    between atoms: _149  and  _150
REMARK   52  A    between atoms: _149  and  _152
REMARK   53  A    between atoms: _152  and  _153
REMARK   54  A    between atoms: _156  and  _158
REMARK   55  A    between atoms: _158  and  _159
REMARK   56  A    between atoms: _158  and  _161
REMARK   57  A    between atoms: _164  and  _166
REMARK   58  A    between atoms: _166  and  _167
REMARK   59  A    between atoms: _166  and  _169
REMARK   60  A    between atoms: _169  and  _170
REMARK   61  A    between atoms: _175  and  _177
REMARK   62  A    between atoms: _177  and  _178
REMARK   63  A    between atoms: _177  and  _180
REMARK   64  A    between atoms: _180  and  _181
REMARK   65  A    between atoms: _187  and  _189
REMARK   66  A    between atoms: _189  and  _190
REMARK   67  A    between atoms: _189  and  _192
REMARK   68  A    between atoms: _195  and  _197
REMARK   69  A    between atoms: _197  and  _198
REMARK   70  A    between atoms: _197  and  _200
REMARK   71  A    between atoms: _200  and  _201
REMARK   72  A    between atoms: _204  and  _206
REMARK   73  A    between atoms: _206  and  _207
REMARK   74  A    between atoms: _210  and  _212
REMARK   75  A    between atoms: _212  and  _213
REMARK   76  A    between atoms: _212  and  _215
REMARK   77  A    between atoms: _218  and  _220
REMARK   78  A    between atoms: _220  and  _221
REMARK   79  A    between atoms: _220  and  _223
REMARK   80  A    between atoms: _223  and  _224
REMARK   81  A    between atoms: _227  and  _229
REMARK   82  A    between atoms: _229  and  _230
REMARK   83  A    between atoms: _229  and  _232
REMARK   84  A    between atoms: _232  and  _233
REMARK   85  A    between atoms: _235  and  _237
REMARK   86  A    between atoms: _237  and  _238
REMARK   87  A    between atoms: _237  and  _240
REMARK   88  A    between atoms: _240  and  _241
REMARK   89  A    between atoms: _244  and  _246
REMARK   90  A    between atoms: _246  and  _247
REMARK   91  A    between atoms: _246  and  _249
REMARK   92  A    between atoms: _249  and  _250
REMARK   93  A    between atoms: _253  and  _255
REMARK   94  A    between atoms: _255  and  _256
REMARK   95  A    between atoms: _255  and  _258
REMARK   96  A    between atoms: _258  and  _259
REMARK   97  A    between atoms: _263  and  _264
REMARK   98  A    between atoms: _270  and  _271
REMARK   99  A    between atoms: _276  and  _278
REMARK  100  A    between atoms: _278  and  _279
REMARK  101  A    between atoms: _278  and  _281
REMARK  102  A    between atoms: _281  and  _282
REMARK  103  A    between atoms: _285  and  _287
REMARK  104  A    between atoms: _287  and  _288
REMARK  105  A    between atoms: _287  and  _290
REMARK  106  A    between atoms: _290  and  _291
REMARK  107  A    between atoms: _294  and  _296
REMARK  108  A    between atoms: _296  and  _297
REMARK  109  A    between atoms: _296  and  _299
REMARK  110  A    between atoms: _301  and  _303
REMARK  111  A    between atoms: _303  and  _304
REMARK  112  A    between atoms: _303  and  _306
REMARK  113  A    between atoms: _309  and  _311
REMARK  114  A    between atoms: _311  and  _312
REMARK  115  A    between atoms: _311  and  _314
REMARK  116  A    between atoms: _314  and  _315
REMARK  117  A    between atoms: _325  and  _327
REMARK  118  A    between atoms: _327  and  _328
REMARK  119  A    between atoms: _327  and  _330
REMARK  120  A    between atoms: _330  and  _331
REMARK  121  A    between atoms: _336  and  _338
REMARK  122  A    between atoms: _338  and  _339
REMARK  123  A    between atoms: _338  and  _341
REMARK  124  A    between atoms: _341  and  _342
REMARK  125  A    between atoms: _342  and  _343
REMARK  126  A    between atoms: _343  and  _344
REMARK                            x       y       z     vdW  Elec       q    Type
REMARK                         _______ _______ _______ _____ _____    ______ ____
ROOT
ATOM      1  CA  SER A   1      18.199  -2.448  24.214  0.00  0.00    +0.163 C 
ENDROOT
BRANCH   1   2
ATOM      2  N   SER A   1      19.289  -1.554  24.685  0.00  0.00    -0.237 NA
ATOM      3  H   SER A   1      19.841  -1.022  23.982  0.00  0.00    +0.142 HD
ENDBRANCH   1   2
BRANCH   1   4
ATOM      4  C   SER A   1      18.713  -3.379  23.141  0.00  0.00    +0.227 C 
ATOM      5  O   SER A   1      19.633  -3.011  22.430  0.00  0.00    -0.287 OA
ENDBRANCH   1   4
BRANCH   1   6
ATOM      6  CB  SER A   1      17.014  -1.636  23.655  0.00  0.00    +0.162 C 
BRANCH   6   7
ATOM      7  OG  SER A   1      16.452  -0.918  24.765  0.00  0.00    -0.380 OA
ATOM      8  H   SER A   1      16.147  -1.562  25.453  0.00  0.00    +0.211 HD
ENDBRANCH   6   7
ENDBRANCH   1   6
TORSDOF 4
REMARK  Name = ../refined-set-2016/4q9y/4q9y_pocket.pdb
REMARK  126 active torsions:
REMARK  status: ('A' for Active; 'I' for Inactive)
REMARK    1  A    between atoms: _1  and  _3
REMARK    2  A    between atoms: _3  and  _4
REMARK    3  A    between atoms: _3  and  _6
REMARK    4  A    between atoms: _6  and  _7
REMARK    5  A    between atoms: _17  and  _19
REMARK    6  A    between atoms: _19  and  _20
REMARK    7  A    between atoms: _19  and  _22
REMARK    8  A    between atoms: _22  and  _23
REMARK    9  A    between atoms: _28  and  _29
REMARK   10  A    between atoms: _31  and  _33
REMARK   11  A    between atoms: _33  and  _34
REMARK   12  A    between atoms: _33  and  _36
REMARK   13  A    between atoms: _36  and  _37
REMARK   14  A    between atoms: _39  and  _41
REMARK   15  A    between atoms: _41  and  _42
REMARK   16  A    between atoms: _41  and  _44
REMARK   17  A    between atoms: _44  and  _45
REMARK   18  A    between atoms: _50  and  _52
REMARK   19  A    between atoms: _52  and  _53
REMARK   20  A    between atoms: _52  and  _55
REMARK   21  A    between atoms: _55  and  _56
REMARK   22  A    between atoms: _61  and  _63
REMARK   23  A    between atoms: _63  and  _64
REMARK   24  A    between atoms: _63  and  _66
REMARK   25  A    between atoms: _66  and  _67
REMARK   26  A    between atoms: _70  and  _72
REMARK   27  A    between atoms: _72  and  _73
REMARK   28  A    between atoms: _72  and  _75
REMARK   29  A    between atoms: _75  and  _76
REMARK   30  A    between atoms: _76  and  _77
REMARK   31  A    between atoms: _82  and  _84
REMARK   32  A    between atoms: _95  and  _98
REMARK   33  A    between atoms: _98  and  _99
REMARK   34  A    between atoms: _107  and  _108
REMARK   35  A    between atoms: _116  and  _118
REMARK   36  A    between atoms: _118  and  _119
REMARK   37  A    between atoms: _118  and  _121
REMARK   38  A    between atoms: _121  and  _122
REMARK   39  A    between atoms: _122  and  _123
REMARK   40  A    between atoms: _126  and  _128
REMARK   41  A    between atoms: _128  and  _129
REMARK   42  A    between atoms: _128  and  _131
REMARK   43  A    between atoms: _131  and  _132
REMARK   44  A    between atoms: _132  and  _133
REMARK   45  A    between atoms: _136  and  _138
REMARK   46  A    between atoms: _138  and  _139
REMARK   47  A    between atoms: _138  and  _141
REMARK   48  A    between atoms: _141  and  _142
REMARK   49  A    between atoms: _143  and  ZN_353
REMARK   50  A    between atoms: _147  and  _149
REMARK   51  A    between atoms: _149  and  _150
REMARK   52  A    between atoms: _149  and  _152
REMARK   53  A    between atoms: _152  and  _153
REMARK   54  A    between atoms: _156  and  _158
REMARK   55  A    between atoms: _158  and  _159
REMARK   56  A    between atoms: _158  and  _161
REMARK   57  A    between atoms: _164  and  _166
REMARK   58  A    between atoms: _166  and  _167
REMARK   59  A    between atoms: _166  and  _169
REMARK   60  A    between atoms: _169  and  _170
REMARK   61  A    between atoms: _175  and  _177
REMARK   62  A    between atoms: _177  and  _178
REMARK   63  A    between atoms: _177  and  _180
REMARK   64  A    between atoms: _180  and  _181
REMARK   65  A    between atoms: _187  and  _189
REMARK   66  A    between atoms: _189  and  _190
REMARK   67  A    between atoms: _189  and  _192
REMARK   68  A    between atoms: _195  and  _197
REMARK   69  A    between atoms: _197  and  _198
REMARK   70  A    between atoms: _197  and  _200
REMARK   71  A    between atoms: _200  and  _201
REMARK   72  A    between atoms: _204  and  _206
REMARK   73  A    between atoms: _206  and  _207
REMARK   74  A    between atoms: _210  and  _212
REMARK   75  A    between atoms: _212  and  _213
REMARK   76  A    between atoms: _212  and  _215
REMARK   77  A    between atoms: _218  and  _220
REMARK   78  A    between atoms: _220  and  _221
REMARK   79  A    between atoms: _220  and  _223
REMARK   80  A    between atoms: _223  and  _224
REMARK   81  A    between atoms: _227  and  _229
REMARK   82  A    between atoms: _229  and  _230
REMARK   83  A    between atoms: _229  and  _232
REMARK   84  A    between atoms: _232  and  _233
REMARK   85  A    between atoms: _235  and  _237
REMARK   86  A    between atoms: _237  and  _238
REMARK   87  A    between atoms: _237  and  _240
REMARK   88  A    between atoms: _240  and  _241
REMARK   89  A    between atoms: _244  and  _246
REMARK   90  A    between atoms: _246  and  _247
REMARK   91  A    between atoms: _246  and  _249
REMARK   92  A    between atoms: _249  and  _250
REMARK   93  A    between atoms: _253  and  _255
REMARK   94  A    between atoms: _255  and  _256
REMARK   95  A    between atoms: _255  and  _258
REMARK   96  A    between atoms: _258  and  _259
REMARK   97  A    between atoms: _263  and  _264
REMARK   98  A    between atoms: _270  and  _271
REMARK   99  A    between atoms: _276  and  _278
REMARK  100  A    between atoms: _278  and  _279
REMARK  101  A    between atoms: _278  and  _281
REMARK  102  A    between atoms: _281  and  _282
REMARK  103  A    between atoms: _285  and  _287
REMARK  104  A    between atoms: _287  and  _288
REMARK  105  A    between atoms: _287  and  _290
REMARK  106  A    between atoms: _290  and  _291
REMARK  107  A    between atoms: _294  and  _296
REMARK  108  A    between atoms: _296  and  _297
REMARK  109  A    between atoms: _296  and  _299
REMARK  110  A    between atoms: _301  and  _303
REMARK  111  A    between atoms: _303  and  _304
REMARK  112  A    between atoms: _303  and  _306
REMARK  113  A    between atoms: _309  and  _311
REMARK  114  A    between atoms: _311  and  _312
REMARK  115  A    between atoms: _311  and  _314
REMARK  116  A    between atoms: _314  and  _315
REMARK  117  A    between atoms: _325  and  _327
REMARK  118  A    between atoms: _327  and  _328
REMARK  119  A    between atoms: _327  and  _330
REMARK  120  A    between atoms: _330  and  _331
REMARK  121  A    between atoms: _336  and  _338
REMARK  122  A    between atoms: _338  and  _339
REMARK  123  A    between atoms: _338  and  _341
REMARK  124  A    between atoms: _341  and  _342
REMARK  125  A    between atoms: _342  and  _343
REMARK  126  A    between atoms: _343  and  _344
REMARK                            x       y       z     vdW  Elec       q    Type
REMARK                         _______ _______ _______ _____ _____    ______ ____
ROOT
ATOM      1  CB  ASN A   1      18.599   1.790   5.330  0.00  0.00    +0.110 C 
ENDROOT
BRANCH   1   2
ATOM      2  CG  ASN A   1      18.217   0.930   6.520  0.00  0.00    +0.221 C 
ATOM      3  ND2 ASN A   1      17.391   1.446   7.414  0.00  0.00    -0.329 N 
ATOM      4 HD21 ASN A   1      17.055   0.865   8.208  0.00  0.00    +0.145 HD
ATOM      5 HD22 ASN A   1      17.077   2.433   7.323  0.00  0.00    +0.145 HD
ATOM      6  OD1 ASN A   1      18.618  -0.205   6.568  0.00  0.00    -0.275 OA
ENDBRANCH   1   2
BRANCH   1   7
ATOM      7  CA  ASN A   1      18.942   0.937   4.097  0.00  0.00    +0.142 C 
BRANCH   7   8
ATOM      8  N   ASN A   1      17.785   0.111   3.654  0.00  0.00    -0.239 NA
ATOM      9  H   ASN A   1      17.219  -0.425   4.342  0.00  0.00    +0.142 HD
ENDBRANCH   7   8
BRANCH   7  10
ATOM     10  C   ASN A   1      20.211   0.160   4.309  0.00  0.00    +0.225 C 
ATOM     11  O   ASN A   1      21.209   0.673   4.893  0.00  0.00    -0.287 OA
ENDBRANCH   7  10
ENDBRANCH   1   7
TORSDOF 4
REMARK  Name = ../refined-set-2016/4q9y/4q9y_pocket.pdb
REMARK  126 active torsions:
REMARK  status: ('A' for Active; 'I' for Inactive)
REMARK    1  A    between atoms: _1  and  _3
REMARK    2  A    between atoms: _3  and  _4
REMARK    3  A    between atoms: _3  and  _6
REMARK    4  A    between atoms: _6  and  _7
REMARK    5  A    between atoms: _17  and  _19
REMARK    6  A    between atoms: _19  and  _20
REMARK    7  A    between atoms: _19  and  _22
REMARK    8  A    between atoms: _22  and  _23
REMARK    9  A    between atoms: _28  and  _29
REMARK   10  A    between atoms: _31  and  _33
REMARK   11  A    between atoms: _33  and  _34
REMARK   12  A    between atoms: _33  and  _36
REMARK   13  A    between atoms: _36  and  _37
REMARK   14  A    between atoms: _39  and  _41
REMARK   15  A    between atoms: _41  and  _42
REMARK   16  A    between atoms: _41  and  _44
REMARK   17  A    between atoms: _44  and  _45
REMARK   18  A    between atoms: _50  and  _52
REMARK   19  A    between atoms: _52  and  _53
REMARK   20  A    between atoms: _52  and  _55
REMARK   21  A    between atoms: _55  and  _56
REMARK   22  A    between atoms: _61  and  _63
REMARK   23  A    between atoms: _63  and  _64
REMARK   24  A    between atoms: _63  and  _66
REMARK   25  A    between atoms: _66  and  _67
REMARK   26  A    between atoms: _70  and  _72
REMARK   27  A    between atoms: _72  and  _73
REMARK   28  A    between atoms: _72  and  _75
REMARK   29  A    between atoms: _75  and  _76
REMARK   30  A    between atoms: _76  and  _77
REMARK   31  A    between atoms: _82  and  _84
REMARK   32  A    between atoms: _95  and  _98
REMARK   33  A    between atoms: _98  and  _99
REMARK   34  A    between atoms: _107  and  _108
REMARK   35  A    between atoms: _116  and  _118
REMARK   36  A    between atoms: _118  and  _119
REMARK   37  A    between atoms: _118  and  _121
REMARK   38  A    between atoms: _121  and  _122
REMARK   39  A    between atoms: _122  and  _123
REMARK   40  A    between atoms: _126  and  _128
REMARK   41  A    between atoms: _128  and  _129
REMARK   42  A    between atoms: _128  and  _131
REMARK   43  A    between atoms: _131  and  _132
REMARK   44  A    between atoms: _132  and  _133
REMARK   45  A    between atoms: _136  and  _138
REMARK   46  A    between atoms: _138  and  _139
REMARK   47  A    between atoms: _138  and  _141
REMARK   48  A    between atoms: _141  and  _142
REMARK   49  A    between atoms: _143  and  ZN_353
REMARK   50  A    between atoms: _147  and  _149
REMARK   51  A    between atoms: _149  and  _150
REMARK   52  A    between atoms: _149  and  _152
REMARK   53  A    between atoms: _152  and  _153
REMARK   54  A    between atoms: _156  and  _158
REMARK   55  A    between atoms: _158  and  _159
REMARK   56  A    between atoms: _158  and  _161
REMARK   57  A    between atoms: _164  and  _166
REMARK   58  A    between atoms: _166  and  _167
REMARK   59  A    between atoms: _166  and  _169
REMARK   60  A    between atoms: _169  and  _170
REMARK   61  A    between atoms: _175  and  _177
REMARK   62  A    between atoms: _177  and  _178
REMARK   63  A    between atoms: _177  and  _180
REMARK   64  A    between atoms: _180  and  _181
REMARK   65  A    between atoms: _187  and  _189
REMARK   66  A    between atoms: _189  and  _190
REMARK   67  A    between atoms: _189  and  _192
REMARK   68  A    between atoms: _195  and  _197
REMARK   69  A    between atoms: _197  and  _198
REMARK   70  A    between atoms: _197  and  _200
REMARK   71  A    between atoms: _200  and  _201
REMARK   72  A    between atoms: _204  and  _206
REMARK   73  A    between atoms: _206  and  _207
REMARK   74  A    between atoms: _210  and  _212
REMARK   75  A    between atoms: _212  and  _213
REMARK   76  A    between atoms: _212  and  _215
REMARK   77  A    between atoms: _218  and  _220
REMARK   78  A    between atoms: _220  and  _221
REMARK   79  A    between atoms: _220  and  _223
REMARK   80  A    between atoms: _223  and  _224
REMARK   81  A    between atoms: _227  and  _229
REMARK   82  A    between atoms: _229  and  _230
REMARK   83  A    between atoms: _229  and  _232
REMARK   84  A    between atoms: _232  and  _233
REMARK   85  A    between atoms: _235  and  _237
REMARK   86  A    between atoms: _237  and  _238
REMARK   87  A    between atoms: _237  and  _240
REMARK   88  A    between atoms: _240  and  _241
REMARK   89  A    between atoms: _244  and  _246
REMARK   90  A    between atoms: _246  and  _247
REMARK   91  A    between atoms: _246  and  _249
REMARK   92  A    between atoms: _249  and  _250
REMARK   93  A    between atoms: _253  and  _255
REMARK   94  A    between atoms: _255  and  _256
REMARK   95  A    between atoms: _255  and  _258
REMARK   96  A    between atoms: _258  and  _259
REMARK   97  A    between atoms: _263  and  _264
REMARK   98  A    between atoms: _270  and  _271
REMARK   99  A    between atoms: _276  and  _278
REMARK  100  A    between atoms: _278  and  _279
REMARK  101  A    between atoms: _278  and  _281
REMARK  102  A    between atoms: _281  and  _282
REMARK  103  A    between atoms: _285  and  _287
REMARK  104  A    between atoms: _287  and  _288
REMARK  105  A    between atoms: _287  and  _290
REMARK  106  A    between atoms: _290  and  _291
REMARK  107  A    between atoms: _294  and  _296
REMARK  108  A    between atoms: _296  and  _297
REMARK  109  A    between atoms: _296  and  _299
REMARK  110  A    between atoms: _301  and  _303
REMARK  111  A    between atoms: _303  and  _304
REMARK  112  A    between atoms: _303  and  _306
REMARK  113  A    between atoms: _309  and  _311
REMARK  114  A    between atoms: _311  and  _312
REMARK  115  A    between atoms: _311  and  _314
REMARK  116  A    between atoms: _314  and  _315
REMARK  117  A    between atoms: _325  and  _327
REMARK  118  A    between atoms: _327  and  _328
REMARK  119  A    between atoms: _327  and  _330
REMARK  120  A    between atoms: _330  and  _331
REMARK  121  A    between atoms: _336  and  _338
REMARK  122  A    between atoms: _338  and  _339
REMARK  123  A    between atoms: _338  and  _341
REMARK  124  A    between atoms: _341  and  _342
REMARK  125  A    between atoms: _342  and  _343
REMARK  126  A    between atoms: _343  and  _344
REMARK                            x       y       z     vdW  Elec       q    Type
REMARK                         _______ _______ _______ _____ _____    ______ ____
ROOT
ATOM      1  CB  ASN A   1      12.686   2.616   6.887  0.00  0.00    +0.110 C 
ENDROOT
BRANCH   1   2
ATOM      2  CG  ASN A   1      13.745   2.441   7.931  0.00  0.00    +0.221 C 
ATOM      3  OD1 ASN A   1      13.764   1.431   8.659  0.00  0.00    -0.275 OA
ATOM      4  ND2 ASN A   1      14.667   3.364   7.985  0.00  0.00    -0.329 N 
ATOM      5 HD21 ASN A   1      15.457   3.271   8.655  0.00  0.00    +0.145 HD
ATOM      6 HD22 ASN A   1      14.612   4.192   7.358  0.00  0.00    +0.145 HD
ENDBRANCH   1   2
BRANCH   1   7
ATOM      7  CA  ASN A   1      11.912   1.293   6.561  0.00  0.00    +0.142 C 
BRANCH   7   8
ATOM      8  N   ASN A   1      12.743   0.374   5.839  0.00  0.00    -0.239 NA
ATOM      9  H   ASN A   1      13.242   0.694   4.985  0.00  0.00    +0.142 HD
ENDBRANCH   7   8
BRANCH   7  10
ATOM     10  C   ASN A   1      10.710   1.691   5.740  0.00  0.00    +0.225 C 
ATOM     11  O   ASN A   1      10.884   2.094   4.613  0.00  0.00    -0.287 OA
ENDBRANCH   7  10
ENDBRANCH   1   7
TORSDOF 4
REMARK  Name = ../refined-set-2016/4q9y/4q9y_pocket.pdb
REMARK  126 active torsions:
REMARK  status: ('A' for Active; 'I' for Inactive)
REMARK    1  A    between atoms: _1  and  _3
REMARK    2  A    between atoms: _3  and  _4
REMARK    3  A    between atoms: _3  and  _6
REMARK    4  A    between atoms: _6  and  _7
REMARK    5  A    between atoms: _17  and  _19
REMARK    6  A    between atoms: _19  and  _20
REMARK    7  A    between atoms: _19  and  _22
REMARK    8  A    between atoms: _22  and  _23
REMARK    9  A    between atoms: _28  and  _29
REMARK   10  A    between atoms: _31  and  _33
REMARK   11  A    between atoms: _33  and  _34
REMARK   12  A    between atoms: _33  and  _36
REMARK   13  A    between atoms: _36  and  _37
REMARK   14  A    between atoms: _39  and  _41
REMARK   15  A    between atoms: _41  and  _42
REMARK   16  A    between atoms: _41  and  _44
REMARK   17  A    between atoms: _44  and  _45
REMARK   18  A    between atoms: _50  and  _52
REMARK   19  A    between atoms: _52  and  _53
REMARK   20  A    between atoms: _52  and  _55
REMARK   21  A    between atoms: _55  and  _56
REMARK   22  A    between atoms: _61  and  _63
REMARK   23  A    between atoms: _63  and  _64
REMARK   24  A    between atoms: _63  and  _66
REMARK   25  A    between atoms: _66  and  _67
REMARK   26  A    between atoms: _70  and  _72
REMARK   27  A    between atoms: _72  and  _73
REMARK   28  A    between atoms: _72  and  _75
REMARK   29  A    between atoms: _75  and  _76
REMARK   30  A    between atoms: _76  and  _77
REMARK   31  A    between atoms: _82  and  _84
REMARK   32  A    between atoms: _95  and  _98
REMARK   33  A    between atoms: _98  and  _99
REMARK   34  A    between atoms: _107  and  _108
REMARK   35  A    between atoms: _116  and  _118
REMARK   36  A    between atoms: _118  and  _119
REMARK   37  A    between atoms: _118  and  _121
REMARK   38  A    between atoms: _121  and  _122
REMARK   39  A    between atoms: _122  and  _123
REMARK   40  A    between atoms: _126  and  _128
REMARK   41  A    between atoms: _128  and  _129
REMARK   42  A    between atoms: _128  and  _131
REMARK   43  A    between atoms: _131  and  _132
REMARK   44  A    between atoms: _132  and  _133
REMARK   45  A    between atoms: _136  and  _138
REMARK   46  A    between atoms: _138  and  _139
REMARK   47  A    between atoms: _138  and  _141
REMARK   48  A    between atoms: _141  and  _142
REMARK   49  A    between atoms: _143  and  ZN_353
REMARK   50  A    between atoms: _147  and  _149
REMARK   51  A    between atoms: _149  and  _150
REMARK   52  A    between atoms: _149  and  _152
REMARK   53  A    between atoms: _152  and  _153
REMARK   54  A    between atoms: _156  and  _158
REMARK   55  A    between atoms: _158  and  _159
REMARK   56  A    between atoms: _158  and  _161
REMARK   57  A    between atoms: _164  and  _166
REMARK   58  A    between atoms: _166  and  _167
REMARK   59  A    between atoms: _166  and  _169
REMARK   60  A    between atoms: _169  and  _170
REMARK   61  A    between atoms: _175  and  _177
REMARK   62  A    between atoms: _177  and  _178
REMARK   63  A    between atoms: _177  and  _180
REMARK   64  A    between atoms: _180  and  _181
REMARK   65  A    between atoms: _187  and  _189
REMARK   66  A    between atoms: _189  and  _190
REMARK   67  A    between atoms: _189  and  _192
REMARK   68  A    between atoms: _195  and  _197
REMARK   69  A    between atoms: _197  and  _198
REMARK   70  A    between atoms: _197  and  _200
REMARK   71  A    between atoms: _200  and  _201
REMARK   72  A    between atoms: _204  and  _206
REMARK   73  A    between atoms: _206  and  _207
REMARK   74  A    between atoms: _210  and  _212
REMARK   75  A    between atoms: _212  and  _213
REMARK   76  A    between atoms: _212  and  _215
REMARK   77  A    between atoms: _218  and  _220
REMARK   78  A    between atoms: _220  and  _221
REMARK   79  A    between atoms: _220  and  _223
REMARK   80  A    between atoms: _223  and  _224
REMARK   81  A    between atoms: _227  and  _229
REMARK   82  A    between atoms: _229  and  _230
REMARK   83  A    between atoms: _229  and  _232
REMARK   84  A    between atoms: _232  and  _233
REMARK   85  A    between atoms: _235  and  _237
REMARK   86  A    between atoms: _237  and  _238
REMARK   87  A    between atoms: _237  and  _240
REMARK   88  A    between atoms: _240  and  _241
REMARK   89  A    between atoms: _244  and  _246
REMARK   90  A    between atoms: _246  and  _247
REMARK   91  A    between atoms: _246  and  _249
REMARK   92  A    between atoms: _249  and  _250
REMARK   93  A    between atoms: _253  and  _255
REMARK   94  A    between atoms: _255  and  _256
REMARK   95  A    between atoms: _255  and  _258
REMARK   96  A    between atoms: _258  and  _259
REMARK   97  A    between atoms: _263  and  _264
REMARK   98  A    between atoms: _270  and  _271
REMARK   99  A    between atoms: _276  and  _278
REMARK  100  A    between atoms: _278  and  _279
REMARK  101  A    between atoms: _278  and  _281
REMARK  102  A    between atoms: _281  and  _282
REMARK  103  A    between atoms: _285  and  _287
REMARK  104  A    between atoms: _287  and  _288
REMARK  105  A    between atoms: _287  and  _290
REMARK  106  A    between atoms: _290  and  _291
REMARK  107  A    between atoms: _294  and  _296
REMARK  108  A    between atoms: _296  and  _297
REMARK  109  A    between atoms: _296  and  _299
REMARK  110  A    between atoms: _301  and  _303
REMARK  111  A    between atoms: _303  and  _304
REMARK  112  A    between atoms: _303  and  _306
REMARK  113  A    between atoms: _309  and  _311
REMARK  114  A    between atoms: _311  and  _312
REMARK  115  A    between atoms: _311  and  _314
REMARK  116  A    between atoms: _314  and  _315
REMARK  117  A    between atoms: _325  and  _327
REMARK  118  A    between atoms: _327  and  _328
REMARK  119  A    between atoms: _327  and  _330
REMARK  120  A    between atoms: _330  and  _331
REMARK  121  A    between atoms: _336  and  _338
REMARK  122  A    between atoms: _338  and  _339
REMARK  123  A    between atoms: _338  and  _341
REMARK  124  A    between atoms: _341  and  _342
REMARK  125  A    between atoms: _342  and  _343
REMARK  126  A    between atoms: _343  and  _344
REMARK                            x       y       z     vdW  Elec       q    Type
REMARK                         _______ _______ _______ _____ _____    ______ ____
ROOT
ATOM      1  C   ILE A   1       8.242   7.349  10.665  0.00  0.00    +0.238 C 
ATOM      2  N   GLN A   2       8.400   6.133  11.197  0.00  0.00    -0.298 N 
ATOM      3  H   GLN A   2       8.277   5.994  12.220  0.00  0.00    +0.150 HD
ATOM      4  O   ILE A   1       8.325   7.564   9.451  0.00  0.00    -0.274 OA
ENDROOT
BRANCH   1   5
ATOM      5  CA  ILE A   1       7.910   8.510  11.609  0.00  0.00    +0.145 C 
BRANCH   5   6
ATOM      6  N   ILE A   1       7.023   8.149  12.707  0.00  0.00    -0.238 NA
ATOM      7  H   ILE A   1       7.361   7.497  13.444  0.00  0.00    +0.142 HD
ENDBRANCH   5   6
BRANCH   5   8
ATOM      8  CB  ILE A   1       9.194   9.231  12.117  0.00  0.00    +0.025 C 
ATOM      9  CG2 ILE A   1       9.932   8.424  13.215  0.00  0.00    +0.002 C 
BRANCH   8  10
ATOM     10  CG1 ILE A   1      10.094   9.580  10.910  0.00  0.00    +0.002 C 
ATOM     11  CD1 ILE A   1      11.205  10.605  11.354  0.00  0.00    +0.000 C 
ENDBRANCH   8  10
ENDBRANCH   5   8
ENDBRANCH   1   5
BRANCH   2  12
ATOM     12  CA  GLN A   2       8.744   5.002  10.347  0.00  0.00    +0.137 C 
BRANCH  12  13
ATOM     13  C   GLN A   2       8.467   3.735  11.093  0.00  0.00    +0.227 C 
ATOM     14  O   GLN A   2       8.365   3.761  12.355  0.00  0.00    -0.286 OA
ENDBRANCH  12  13
BRANCH  12  15
ATOM     15  CB  GLN A   2      10.211   5.077   9.872  0.00  0.00    +0.037 C 
BRANCH  15  16
ATOM     16  CG  GLN A   2      11.194   5.113  11.060  0.00  0.00    +0.087 C 
BRANCH  16  17
ATOM     17  CD  GLN A   2      11.999   3.835  11.183  0.00  0.00    +0.219 C 
ATOM     18  OE1 GLN A   2      11.457   2.730  11.253  0.00  0.00    -0.275 OA
ATOM     19  NE2 GLN A   2      13.303   3.990  11.213  0.00  0.00    -0.329 N 
ATOM     20 HE21 GLN A   2      13.924   3.160  11.299  0.00  0.00    +0.145 HD
ATOM     21 HE22 GLN A   2      13.715   4.943  11.151  0.00  0.00    +0.145 HD
ENDBRANCH  16  17
ENDBRANCH  15  16
ENDBRANCH  12  15
ENDBRANCH   2  12
TORSDOF 9
REMARK  Name = ../refined-set-2016/4q9y/4q9y_pocket.pdb
REMARK  126 active torsions:
REMARK  status: ('A' for Active; 'I' for Inactive)
REMARK    1  A    between atoms: _1  and  _3
REMARK    2  A    between atoms: _3  and  _4
REMARK    3  A    between atoms: _3  and  _6
REMARK    4  A    between atoms: _6  and  _7
REMARK    5  A    between atoms: _17  and  _19
REMARK    6  A    between atoms: _19  and  _20
REMARK    7  A    between atoms: _19  and  _22
REMARK    8  A    between atoms: _22  and  _23
REMARK    9  A    between atoms: _28  and  _29
REMARK   10  A    between atoms: _31  and  _33
REMARK   11  A    between atoms: _33  and  _34
REMARK   12  A    between atoms: _33  and  _36
REMARK   13  A    between atoms: _36  and  _37
REMARK   14  A    between atoms: _39  and  _41
REMARK   15  A    between atoms: _41  and  _42
REMARK   16  A    between atoms: _41  and  _44
REMARK   17  A    between atoms: _44  and  _45
REMARK   18  A    between atoms: _50  and  _52
REMARK   19  A    between atoms: _52  and  _53
REMARK   20  A    between atoms: _52  and  _55
REMARK   21  A    between atoms: _55  and  _56
REMARK   22  A    between atoms: _61  and  _63
REMARK   23  A    between atoms: _63  and  _64
REMARK   24  A    between atoms: _63  and  _66
REMARK   25  A    between atoms: _66  and  _67
REMARK   26  A    between atoms: _70  and  _72
REMARK   27  A    between atoms: _72  and  _73
REMARK   28  A    between atoms: _72  and  _75
REMARK   29  A    between atoms: _75  and  _76
REMARK   30  A    between atoms: _76  and  _77
REMARK   31  A    between atoms: _82  and  _84
REMARK   32  A    between atoms: _95  and  _98
REMARK   33  A    between atoms: _98  and  _99
REMARK   34  A    between atoms: _107  and  _108
REMARK   35  A    between atoms: _116  and  _118
REMARK   36  A    between atoms: _118  and  _119
REMARK   37  A    between atoms: _118  and  _121
REMARK   38  A    between atoms: _121  and  _122
REMARK   39  A    between atoms: _122  and  _123
REMARK   40  A    between atoms: _126  and  _128
REMARK   41  A    between atoms: _128  and  _129
REMARK   42  A    between atoms: _128  and  _131
REMARK   43  A    between atoms: _131  and  _132
REMARK   44  A    between atoms: _132  and  _133
REMARK   45  A    between atoms: _136  and  _138
REMARK   46  A    between atoms: _138  and  _139
REMARK   47  A    between atoms: _138  and  _141
REMARK   48  A    between atoms: _141  and  _142
REMARK   49  A    between atoms: _143  and  ZN_353
REMARK   50  A    between atoms: _147  and  _149
REMARK   51  A    between atoms: _149  and  _150
REMARK   52  A    between atoms: _149  and  _152
REMARK   53  A    between atoms: _152  and  _153
REMARK   54  A    between atoms: _156  and  _158
REMARK   55  A    between atoms: _158  and  _159
REMARK   56  A    between atoms: _158  and  _161
REMARK   57  A    between atoms: _164  and  _166
REMARK   58  A    between atoms: _166  and  _167
REMARK   59  A    between atoms: _166  and  _169
REMARK   60  A    between atoms: _169  and  _170
REMARK   61  A    between atoms: _175  and  _177
REMARK   62  A    between atoms: _177  and  _178
REMARK   63  A    between atoms: _177  and  _180
REMARK   64  A    between atoms: _180  and  _181
REMARK   65  A    between atoms: _187  and  _189
REMARK   66  A    between atoms: _189  and  _190
REMARK   67  A    between atoms: _189  and  _192
REMARK   68  A    between atoms: _195  and  _197
REMARK   69  A    between atoms: _197  and  _198
REMARK   70  A    between atoms: _197  and  _200
REMARK   71  A    between atoms: _200  and  _201
REMARK   72  A    between atoms: _204  and  _206
REMARK   73  A    between atoms: _206  and  _207
REMARK   74  A    between atoms: _210  and  _212
REMARK   75  A    between atoms: _212  and  _213
REMARK   76  A    between atoms: _212  and  _215
REMARK   77  A    between atoms: _218  and  _220
REMARK   78  A    between atoms: _220  and  _221
REMARK   79  A    between atoms: _220  and  _223
REMARK   80  A    between atoms: _223  and  _224
REMARK   81  A    between atoms: _227  and  _229
REMARK   82  A    between atoms: _229  and  _230
REMARK   83  A    between atoms: _229  and  _232
REMARK   84  A    between atoms: _232  and  _233
REMARK   85  A    between atoms: _235  and  _237
REMARK   86  A    between atoms: _237  and  _238
REMARK   87  A    between atoms: _237  and  _240
REMARK   88  A    between atoms: _240  and  _241
REMARK   89  A    between atoms: _244  and  _246
REMARK   90  A    between atoms: _246  and  _247
REMARK   91  A    between atoms: _246  and  _249
REMARK   92  A    between atoms: _249  and  _250
REMARK   93  A    between atoms: _253  and  _255
REMARK   94  A    between atoms: _255  and  _256
REMARK   95  A    between atoms: _255  and  _258
REMARK   96  A    between atoms: _258  and  _259
REMARK   97  A    between atoms: _263  and  _264
REMARK   98  A    between atoms: _270  and  _271
REMARK   99  A    between atoms: _276  and  _278
REMARK  100  A    between atoms: _278  and  _279
REMARK  101  A    between atoms: _278  and  _281
REMARK  102  A    between atoms: _281  and  _282
REMARK  103  A    between atoms: _285  and  _287
REMARK  104  A    between atoms: _287  and  _288
REMARK  105  A    between atoms: _287  and  _290
REMARK  106  A    between atoms: _290  and  _291
REMARK  107  A    between atoms: _294  and  _296
REMARK  108  A    between atoms: _296  and  _297
REMARK  109  A    between atoms: _296  and  _299
REMARK  110  A    between atoms: _301  and  _303
REMARK  111  A    between atoms: _303  and  _304
REMARK  112  A    between atoms: _303  and  _306
REMARK  113  A    between atoms: _309  and  _311
REMARK  114  A    between atoms: _311  and  _312
REMARK  115  A    between atoms: _311  and  _314
REMARK  116  A    between atoms: _314  and  _315
REMARK  117  A    between atoms: _325  and  _327
REMARK  118  A    between atoms: _327  and  _328
REMARK  119  A    between atoms: _327  and  _330
REMARK  120  A    between atoms: _330  and  _331
REMARK  121  A    between atoms: _336  and  _338
REMARK  122  A    between atoms: _338  and  _339
REMARK  123  A    between atoms: _338  and  _341
REMARK  124  A    between atoms: _341  and  _342
REMARK  125  A    between atoms: _342  and  _343
REMARK  126  A    between atoms: _343  and  _344
REMARK                            x       y       z     vdW  Elec       q    Type
REMARK                         _______ _______ _______ _____ _____    ______ ____
ROOT
ATOM      1  N   UNK A   3      12.962  -2.347  16.551  0.00  0.00    +0.000 N 
ATOM      2  C   UNK A   3      13.292  -3.238  17.470  0.00  0.00    +0.000 A 
ATOM      3  N   UNK A   3      12.181  -3.715  17.994  0.00  0.00    +0.000 NA
ATOM      4  C   UNK A   3      11.090  -3.041  17.449  0.00  0.00    +0.000 A 
ATOM      5  C   UNK A   3      11.593  -2.184  16.526  0.00  0.00    +0.000 A 
ENDROOT
BRANCH   1  19
ATOM      6  C   UNK A   1      10.898  -1.519  10.337  0.00  0.00    +0.000 C 
ATOM      7  C   UNK A   1      10.778  -2.779  11.146  0.00  0.00    +0.000 C 
ATOM      8  O   UNK A   1      10.133  -2.812  12.197  0.00  0.00    +0.000 OA
ATOM      9  N   LEU A   2      11.459  -3.829  10.653  0.00  0.00    +0.000 N 
ATOM     10  CA  LEU A   2      11.463  -5.081  11.324  0.00  0.00    +0.000 C 
ATOM     11  C   LEU A   2      12.917  -5.551  11.551  0.00  0.00    +0.000 C 
ATOM     12  N   UNK A   3      13.036  -6.515  12.460  0.00  0.00    +0.000 N 
ATOM     13  H   UNK A   3      12.215  -6.709  13.068  0.00  0.00    +0.000 HD
ATOM     14  C   UNK A   3      14.247  -7.326  12.666  0.00  0.00    +0.000 C 
ATOM     15  C   UNK A   3      14.862  -7.057  14.047  0.00  0.00    +0.000 C 
ATOM     16  C   UNK A   3      15.160  -5.616  14.334  0.00  0.00    +0.000 A 
ATOM     17  C   UNK A   3      14.386  -4.571  14.730  0.00  0.00    +0.000 A 
ATOM     18  N   UNK A   3      15.181  -3.434  14.740  0.00  0.00    +0.000 N 
ATOM     19 ZN   UNK A   3      14.559  -1.588  15.344  0.00  0.00    +0.000 Zn
ATOM     20  N   UNK A   3      13.779  -0.746  13.667  0.00  0.00    +0.000 N 
ATOM     21  C   UNK A   3      13.274   0.459  13.458  0.00  0.00    +0.000 A 
ATOM     22  N   UNK A   3      12.704   0.514  12.267  0.00  0.00    +0.000 NA
ATOM     23  C   UNK A   3      12.903  -0.705  11.647  0.00  0.00    +0.000 A 
ATOM     24  C   UNK A   3      13.546  -1.500  12.544  0.00  0.00    +0.000 A 
ATOM     25  C   UNK A   3      16.427  -3.806  14.409  0.00  0.00    +0.000 A 
ATOM     26  N   UNK A   3      16.407  -5.090  14.038  0.00  0.00    +0.000 NA
ATOM     27  O   LEU A   2      13.837  -5.097  10.878  0.00  0.00    +0.000 OA
ATOM     28  H   LEU A   2      11.991  -3.722   9.766  0.00  0.00    +0.000 HD
ATOM     29  C   UNK A   3      12.368  -0.994  10.289  0.00  0.00    +0.000 C 
BRANCH   6  30
ATOM     30  N   UNK A   1       9.979  -0.539  10.926  0.00  0.00    +0.000 NA
ATOM     31  H   UNK A   1       9.738  -0.632  11.933  0.00  0.00    +0.000 HD
ENDBRANCH   6  30
BRANCH  14  32
ATOM     32  C   UNK A   3      13.827  -8.792  12.602  0.00  0.00    +0.000 C 
ATOM     33  O   UNK A   3      12.741  -9.136  13.117  0.00  0.00    +0.000 OA
ENDBRANCH  14  32
BRANCH  10  34
ATOM     34  CB  LEU A   2      10.703  -6.198  10.538  0.00  0.00    +0.000 C 
BRANCH  34  35
ATOM     35  CG  LEU A   2       9.326  -5.876  10.201  0.00  0.00    +0.000 A 
ATOM     36  CD2 LEU A   2       8.282  -6.542  10.853  0.00  0.00    +0.000 A 
ATOM     37  CE2 LEU A   2       6.954  -6.291  10.527  0.00  0.00    +0.000 A 
ATOM     38  CZ  LEU A   2       6.665  -5.461   9.405  0.00  0.00    +0.000 A 
ATOM     39  CE1 LEU A   2       7.661  -4.847   8.725  0.00  0.00    +0.000 A 
ATOM     40  CD1 LEU A   2       9.030  -5.054   9.111  0.00  0.00    +0.000 A 
ENDBRANCH  34  35
ENDBRANCH  10  34
ENDBRANCH   1  19
BRANCH   5  41
ATOM     41  C   UNK A   3      10.912  -1.219  15.623  0.00  0.00    +0.000 C 
BRANCH  41  42
ATOM     42  C   UNK A   3       9.393  -1.510  15.608  0.00  0.00    +0.000 C 
BRANCH  42  43
ATOM     43  C   UNK A   3       8.697  -0.395  14.898  0.00  0.00    +0.000 C 
ATOM     44  N   LEU A   2       7.675   0.175  15.558  0.00  0.00    +0.000 N 
ATOM     45  H   LEU A   2       7.353  -0.272  16.440  0.00  0.00    +0.000 HD
ATOM     46  O   UNK A   3       9.099   0.043  13.809  0.00  0.00    +0.000 OA
BRANCH  44  47
ATOM     47  CA  LEU A   2       6.960   1.435  15.092  0.00  0.00    +0.000 C 
BRANCH  47  48
ATOM     48  C   LEU A   2       7.533   2.581  15.883  0.00  0.00    +0.000 C 
ATOM     49  O   LEU A   2       7.446   2.627  17.126  0.00  0.00    +0.000 OA
ATOM     50  N   UNK A   3       8.251   3.451  15.136  0.00  0.00    +0.000 N 
ATOM     51  H   UNK A   3       8.201   3.402  14.098  0.00  0.00    +0.000 HD
BRANCH  50  52
ATOM     52  C   UNK A   3       9.122   4.489  15.791  0.00  0.00    +0.000 C 
BRANCH  52  53
ATOM     53  C   UNK A   3       8.416   5.837  15.813  0.00  0.00    +0.000 C 
ATOM     54  N   HIS A   4       8.354   6.421  17.010  0.00  0.00    +0.000 N 
ATOM     55  H   HIS A   4       8.814   5.967  17.825  0.00  0.00    +0.000 HD
ATOM     56  O   UNK A   3       7.906   6.318  14.781  0.00  0.00    +0.000 OA
BRANCH  54  57
ATOM     57  CA  HIS A   4       7.646   7.698  17.198  0.00  0.00    +0.000 C 
BRANCH  57  58
ATOM     58  C   HIS A   4       8.503   8.678  17.927  0.00  0.00    +0.000 C 
ATOM     59  O   HIS A   4       9.187   8.275  18.835  0.00  0.00    +0.000 OA
ENDBRANCH  57  58
BRANCH  57  60
ATOM     60  CB  HIS A   4       6.317   7.541  18.022  0.00  0.00    +0.000 C 
BRANCH  60  61
ATOM     61  CG  HIS A   4       5.446   6.390  17.594  0.00  0.00    +0.000 A 
ATOM     62  ND1 HIS A   4       5.809   5.060  17.841  0.00  0.00    +0.000 NA
ATOM     63  CE1 HIS A   4       4.834   4.255  17.395  0.00  0.00    +0.000 A 
ATOM     64  NE2 HIS A   4       3.860   5.012  16.899  0.00  0.00    +0.000 NA
ATOM     65  CD2 HIS A   4       4.224   6.351  16.978  0.00  0.00    +0.000 A 
ENDBRANCH  60  61
ENDBRANCH  57  60
ENDBRANCH  54  57
ENDBRANCH  52  53
BRANCH  52  66
ATOM     66  C   UNK A   3      10.404   4.632  15.006  0.00  0.00    +0.000 C 
ATOM     67  C   UNK A   3      11.325   5.714  15.642  0.00  0.00    +0.000 C 
ATOM     68  C   UNK A   3      11.120   3.260  14.882  0.00  0.00    +0.000 C 
ENDBRANCH  52  66
ENDBRANCH  50  52
ENDBRANCH  47  48
BRANCH  47  69
ATOM     69  CB  LEU A   2       5.440   1.286  15.327  0.00  0.00    +0.000 C 
BRANCH  69  70
ATOM     70  CG  LEU A   2       4.790   0.207  14.439  0.00  0.00    +0.000 C 
ATOM     71  CD2 LEU A   2       3.869  -0.657  15.244  0.00  0.00    +0.000 C 
ATOM     72  CD1 LEU A   2       4.002   0.913  13.337  0.00  0.00    +0.000 C 
ENDBRANCH  69  70
ENDBRANCH  47  69
ENDBRANCH  44  47
ENDBRANCH  42  43
BRANCH  42  73
ATOM     73  N   UNK A   3       9.132  -2.741  14.834  0.00  0.00    +0.000 NA
ATOM     74  H   UNK A   1       9.450  -2.780  13.844  0.00  0.00    +0.000 HD
ENDBRANCH  42  73
ENDBRANCH  41  42
ENDBRANCH   5  41
TORSDOF 20
REMARK  Name = ../refined-set-2016/4q9y/4q9y_pocket.pdb
REMARK  126 active torsions:
REMARK  status: ('A' for Active; 'I' for Inactive)
REMARK    1  A    between atoms: _1  and  _3
REMARK    2  A    between atoms: _3  and  _4
REMARK    3  A    between atoms: _3  and  _6
REMARK    4  A    between atoms: _6  and  _7
REMARK    5  A    between atoms: _17  and  _19
REMARK    6  A    between atoms: _19  and  _20
REMARK    7  A    between atoms: _19  and  _22
REMARK    8  A    between atoms: _22  and  _23
REMARK    9  A    between atoms: _28  and  _29
REMARK   10  A    between atoms: _31  and  _33
REMARK   11  A    between atoms: _33  and  _34
REMARK   12  A    between atoms: _33  and  _36
REMARK   13  A    between atoms: _36  and  _37
REMARK   14  A    between atoms: _39  and  _41
REMARK   15  A    between atoms: _41  and  _42
REMARK   16  A    between atoms: _41  and  _44
REMARK   17  A    between atoms: _44  and  _45
REMARK   18  A    between atoms: _50  and  _52
REMARK   19  A    between atoms: _52  and  _53
REMARK   20  A    between atoms: _52  and  _55
REMARK   21  A    between atoms: _55  and  _56
REMARK   22  A    between atoms: _61  and  _63
REMARK   23  A    between atoms: _63  and  _64
REMARK   24  A    between atoms: _63  and  _66
REMARK   25  A    between atoms: _66  and  _67
REMARK   26  A    between atoms: _70  and  _72
REMARK   27  A    between atoms: _72  and  _73
REMARK   28  A    between atoms: _72  and  _75
REMARK   29  A    between atoms: _75  and  _76
REMARK   30  A    between atoms: _76  and  _77
REMARK   31  A    between atoms: _82  and  _84
REMARK   32  A    between atoms: _95  and  _98
REMARK   33  A    between atoms: _98  and  _99
REMARK   34  A    between atoms: _107  and  _108
REMARK   35  A    between atoms: _116  and  _118
REMARK   36  A    between atoms: _118  and  _119
REMARK   37  A    between atoms: _118  and  _121
REMARK   38  A    between atoms: _121  and  _122
REMARK   39  A    between atoms: _122  and  _123
REMARK   40  A    between atoms: _126  and  _128
REMARK   41  A    between atoms: _128  and  _129
REMARK   42  A    between atoms: _128  and  _131
REMARK   43  A    between atoms: _131  and  _132
REMARK   44  A    between atoms: _132  and  _133
REMARK   45  A    between atoms: _136  and  _138
REMARK   46  A    between atoms: _138  and  _139
REMARK   47  A    between atoms: _138  and  _141
REMARK   48  A    between atoms: _141  and  _142
REMARK   49  A    between atoms: _143  and  ZN_353
REMARK   50  A    between atoms: _147  and  _149
REMARK   51  A    between atoms: _149  and  _150
REMARK   52  A    between atoms: _149  and  _152
REMARK   53  A    between atoms: _152  and  _153
REMARK   54  A    between atoms: _156  and  _158
REMARK   55  A    between atoms: _158  and  _159
REMARK   56  A    between atoms: _158  and  _161
REMARK   57  A    between atoms: _164  and  _166
REMARK   58  A    between atoms: _166  and  _167
REMARK   59  A    between atoms: _166  and  _169
REMARK   60  A    between atoms: _169  and  _170
REMARK   61  A    between atoms: _175  and  _177
REMARK   62  A    between atoms: _177  and  _178
REMARK   63  A    between atoms: _177  and  _180
REMARK   64  A    between atoms: _180  and  _181
REMARK   65  A    between atoms: _187  and  _189
REMARK   66  A    between atoms: _189  and  _190
REMARK   67  A    between atoms: _189  and  _192
REMARK   68  A    between atoms: _195  and  _197
REMARK   69  A    between atoms: _197  and  _198
REMARK   70  A    between atoms: _197  and  _200
REMARK   71  A    between atoms: _200  and  _201
REMARK   72  A    between atoms: _204  and  _206
REMARK   73  A    between atoms: _206  and  _207
REMARK   74  A    between atoms: _210  and  _212
REMARK   75  A    between atoms: _212  and  _213
REMARK   76  A    between atoms: _212  and  _215
REMARK   77  A    between atoms: _218  and  _220
REMARK   78  A    between atoms: _220  and  _221
REMARK   79  A    between atoms: _220  and  _223
REMARK   80  A    between atoms: _223  and  _224
REMARK   81  A    between atoms: _227  and  _229
REMARK   82  A    between atoms: _229  and  _230
REMARK   83  A    between atoms: _229  and  _232
REMARK   84  A    between atoms: _232  and  _233
REMARK   85  A    between atoms: _235  and  _237
REMARK   86  A    between atoms: _237  and  _238
REMARK   87  A    between atoms: _237  and  _240
REMARK   88  A    between atoms: _240  and  _241
REMARK   89  A    between atoms: _244  and  _246
REMARK   90  A    between atoms: _246  and  _247
REMARK   91  A    between atoms: _246  and  _249
REMARK   92  A    between atoms: _249  and  _250
REMARK   93  A    between atoms: _253  and  _255
REMARK   94  A    between atoms: _255  and  _256
REMARK   95  A    between atoms: _255  and  _258
REMARK   96  A    between atoms: _258  and  _259
REMARK   97  A    between atoms: _263  and  _264
REMARK   98  A    between atoms: _270  and  _271
REMARK   99  A    between atoms: _276  and  _278
REMARK  100  A    between atoms: _278  and  _279
REMARK  101  A    between atoms: _278  and  _281
REMARK  102  A    between atoms: _281  and  _282
REMARK  103  A    between atoms: _285  and  _287
REMARK  104  A    between atoms: _287  and  _288
REMARK  105  A    between atoms: _287  and  _290
REMARK  106  A    between atoms: _290  and  _291
REMARK  107  A    between atoms: _294  and  _296
REMARK  108  A    between atoms: _296  and  _297
REMARK  109  A    between atoms: _296  and  _299
REMARK  110  A    between atoms: _301  and  _303
REMARK  111  A    between atoms: _303  and  _304
REMARK  112  A    between atoms: _303  and  _306
REMARK  113  A    between atoms: _309  and  _311
REMARK  114  A    between atoms: _311  and  _312
REMARK  115  A    between atoms: _311  and  _314
REMARK  116  A    between atoms: _314  and  _315
REMARK  117  A    between atoms: _325  and  _327
REMARK  118  A    between atoms: _327  and  _328
REMARK  119  A    between atoms: _327  and  _330
REMARK  120  A    between atoms: _330  and  _331
REMARK  121  A    between atoms: _336  and  _338
REMARK  122  A    between atoms: _338  and  _339
REMARK  123  A    between atoms: _338  and  _341
REMARK  124  A    between atoms: _341  and  _342
REMARK  125  A    between atoms: _342  and  _343
REMARK  126  A    between atoms: _343  and  _344
REMARK                            x       y       z     vdW  Elec       q    Type
REMARK                         _______ _______ _______ _____ _____    ______ ____
ROOT
ATOM      1  CA  GLU A   1      15.423  -8.536  19.619  0.00  0.00    +0.134 C 
ENDROOT
BRANCH   1   2
ATOM      2  N   GLU A   1      14.398  -9.247  18.792  0.00  0.00    -0.239 NA
ATOM      3  H   GLU A   1      13.518  -8.751  18.544  0.00  0.00    +0.142 HD
ENDBRANCH   1   2
BRANCH   1   4
ATOM      4  C   GLU A   1      15.053  -8.685  21.081  0.00  0.00    +0.224 C 
ATOM      5  O   GLU A   1      15.818  -9.322  21.870  0.00  0.00    -0.287 OA
ENDBRANCH   1   4
BRANCH   1   6
ATOM      6  CB  GLU A   1      15.416  -7.068  19.228  0.00  0.00    +0.037 C 
BRANCH   6   7
ATOM      7  CG  GLU A   1      16.013  -7.039  17.765  0.00  0.00    +0.116 C 
BRANCH   7   8
ATOM      8  CD  GLU A   1      16.647  -5.772  17.415  0.00  0.00    +0.365 C 
ATOM      9  OE2 GLU A   1      15.971  -4.725  17.579  0.00  0.00    -0.246 OA
ATOM     10  OE1 GLU A   1      17.728  -5.731  16.867  0.00  0.00    -0.246 OA
ENDBRANCH   7   8
ENDBRANCH   6   7
ENDBRANCH   1   6
TORSDOF 5
REMARK  Name = ../refined-set-2016/4q9y/4q9y_pocket.pdb
REMARK  126 active torsions:
REMARK  status: ('A' for Active; 'I' for Inactive)
REMARK    1  A    between atoms: _1  and  _3
REMARK    2  A    between atoms: _3  and  _4
REMARK    3  A    between atoms: _3  and  _6
REMARK    4  A    between atoms: _6  and  _7
REMARK    5  A    between atoms: _17  and  _19
REMARK    6  A    between atoms: _19  and  _20
REMARK    7  A    between atoms: _19  and  _22
REMARK    8  A    between atoms: _22  and  _23
REMARK    9  A    between atoms: _28  and  _29
REMARK   10  A    between atoms: _31  and  _33
REMARK   11  A    between atoms: _33  and  _34
REMARK   12  A    between atoms: _33  and  _36
REMARK   13  A    between atoms: _36  and  _37
REMARK   14  A    between atoms: _39  and  _41
REMARK   15  A    between atoms: _41  and  _42
REMARK   16  A    between atoms: _41  and  _44
REMARK   17  A    between atoms: _44  and  _45
REMARK   18  A    between atoms: _50  and  _52
REMARK   19  A    between atoms: _52  and  _53
REMARK   20  A    between atoms: _52  and  _55
REMARK   21  A    between atoms: _55  and  _56
REMARK   22  A    between atoms: _61  and  _63
REMARK   23  A    between atoms: _63  and  _64
REMARK   24  A    between atoms: _63  and  _66
REMARK   25  A    between atoms: _66  and  _67
REMARK   26  A    between atoms: _70  and  _72
REMARK   27  A    between atoms: _72  and  _73
REMARK   28  A    between atoms: _72  and  _75
REMARK   29  A    between atoms: _75  and  _76
REMARK   30  A    between atoms: _76  and  _77
REMARK   31  A    between atoms: _82  and  _84
REMARK   32  A    between atoms: _95  and  _98
REMARK   33  A    between atoms: _98  and  _99
REMARK   34  A    between atoms: _107  and  _108
REMARK   35  A    between atoms: _116  and  _118
REMARK   36  A    between atoms: _118  and  _119
REMARK   37  A    between atoms: _118  and  _121
REMARK   38  A    between atoms: _121  and  _122
REMARK   39  A    between atoms: _122  and  _123
REMARK   40  A    between atoms: _126  and  _128
REMARK   41  A    between atoms: _128  and  _129
REMARK   42  A    between atoms: _128  and  _131
REMARK   43  A    between atoms: _131  and  _132
REMARK   44  A    between atoms: _132  and  _133
REMARK   45  A    between atoms: _136  and  _138
REMARK   46  A    between atoms: _138  and  _139
REMARK   47  A    between atoms: _138  and  _141
REMARK   48  A    between atoms: _141  and  _142
REMARK   49  A    between atoms: _143  and  ZN_353
REMARK   50  A    between atoms: _147  and  _149
REMARK   51  A    between atoms: _149  and  _150
REMARK   52  A    between atoms: _149  and  _152
REMARK   53  A    between atoms: _152  and  _153
REMARK   54  A    between atoms: _156  and  _158
REMARK   55  A    between atoms: _158  and  _159
REMARK   56  A    between atoms: _158  and  _161
REMARK   57  A    between atoms: _164  and  _166
REMARK   58  A    between atoms: _166  and  _167
REMARK   59  A    between atoms: _166  and  _169
REMARK   60  A    between atoms: _169  and  _170
REMARK   61  A    between atoms: _175  and  _177
REMARK   62  A    between atoms: _177  and  _178
REMARK   63  A    between atoms: _177  and  _180
REMARK   64  A    between atoms: _180  and  _181
REMARK   65  A    between atoms: _187  and  _189
REMARK   66  A    between atoms: _189  and  _190
REMARK   67  A    between atoms: _189  and  _192
REMARK   68  A    between atoms: _195  and  _197
REMARK   69  A    between atoms: _197  and  _198
REMARK   70  A    between atoms: _197  and  _200
REMARK   71  A    between atoms: _200  and  _201
REMARK   72  A    between atoms: _204  and  _206
REMARK   73  A    between atoms: _206  and  _207
REMARK   74  A    between atoms: _210  and  _212
REMARK   75  A    between atoms: _212  and  _213
REMARK   76  A    between atoms: _212  and  _215
REMARK   77  A    between atoms: _218  and  _220
REMARK   78  A    between atoms: _220  and  _221
REMARK   79  A    between atoms: _220  and  _223
REMARK   80  A    between atoms: _223  and  _224
REMARK   81  A    between atoms: _227  and  _229
REMARK   82  A    between atoms: _229  and  _230
REMARK   83  A    between atoms: _229  and  _232
REMARK   84  A    between atoms: _232  and  _233
REMARK   85  A    between atoms: _235  and  _237
REMARK   86  A    between atoms: _237  and  _238
REMARK   87  A    between atoms: _237  and  _240
REMARK   88  A    between atoms: _240  and  _241
REMARK   89  A    between atoms: _244  and  _246
REMARK   90  A    between atoms: _246  and  _247
REMARK   91  A    between atoms: _246  and  _249
REMARK   92  A    between atoms: _249  and  _250
REMARK   93  A    between atoms: _253  and  _255
REMARK   94  A    between atoms: _255  and  _256
REMARK   95  A    between atoms: _255  and  _258
REMARK   96  A    between atoms: _258  and  _259
REMARK   97  A    between atoms: _263  and  _264
REMARK   98  A    between atoms: _270  and  _271
REMARK   99  A    between atoms: _276  and  _278
REMARK  100  A    between atoms: _278  and  _279
REMARK  101  A    between atoms: _278  and  _281
REMARK  102  A    between atoms: _281  and  _282
REMARK  103  A    between atoms: _285  and  _287
REMARK  104  A    between atoms: _287  and  _288
REMARK  105  A    between atoms: _287  and  _290
REMARK  106  A    between atoms: _290  and  _291
REMARK  107  A    between atoms: _294  and  _296
REMARK  108  A    between atoms: _296  and  _297
REMARK  109  A    between atoms: _296  and  _299
REMARK  110  A    between atoms: _301  and  _303
REMARK  111  A    between atoms: _303  and  _304
REMARK  112  A    between atoms: _303  and  _306
REMARK  113  A    between atoms: _309  and  _311
REMARK  114  A    between atoms: _311  and  _312
REMARK  115  A    between atoms: _311  and  _314
REMARK  116  A    between atoms: _314  and  _315
REMARK  117  A    between atoms: _325  and  _327
REMARK  118  A    between atoms: _327  and  _328
REMARK  119  A    between atoms: _327  and  _330
REMARK  120  A    between atoms: _330  and  _331
REMARK  121  A    between atoms: _336  and  _338
REMARK  122  A    between atoms: _338  and  _339
REMARK  123  A    between atoms: _338  and  _341
REMARK  124  A    between atoms: _341  and  _342
REMARK  125  A    between atoms: _342  and  _343
REMARK  126  A    between atoms: _343  and  _344
REMARK                            x       y       z     vdW  Elec       q    Type
REMARK                         _______ _______ _______ _____ _____    ______ ____
ROOT
ATOM      1  CA  GLU A   1       9.966  -8.089  15.711  0.00  0.00    +0.134 C 
ENDROOT
BRANCH   1   2
ATOM      2  N   GLU A   1      10.502  -9.108  14.824  0.00  0.00    -0.239 NA
ATOM      3  H   GLU A   1      11.150  -8.840  14.056  0.00  0.00    +0.142 HD
ENDBRANCH   1   2
BRANCH   1   4
ATOM      4  C   GLU A   1       9.806  -6.823  14.906  0.00  0.00    +0.224 C 
ATOM      5  O   GLU A   1      10.725  -6.392  14.184  0.00  0.00    -0.287 OA
ENDBRANCH   1   4
BRANCH   1   6
ATOM      6  CB  GLU A   1      10.952  -7.888  16.915  0.00  0.00    +0.037 C 
BRANCH   6   7
ATOM      7  CG  GLU A   1      10.492  -6.836  17.938  0.00  0.00    +0.116 C 
BRANCH   7   8
ATOM      8  CD  GLU A   1      11.434  -6.814  19.089  0.00  0.00    +0.365 C 
ATOM      9  OE2 GLU A   1      11.581  -5.678  19.652  0.00  0.00    -0.246 OA
ATOM     10  OE1 GLU A   1      11.937  -7.861  19.469  0.00  0.00    -0.246 OA
ENDBRANCH   7   8
ENDBRANCH   6   7
ENDBRANCH   1   6
TORSDOF 5
REMARK  Name = ../refined-set-2016/4q9y/4q9y_pocket.pdb
REMARK  126 active torsions:
REMARK  status: ('A' for Active; 'I' for Inactive)
REMARK    1  A    between atoms: _1  and  _3
REMARK    2  A    between atoms: _3  and  _4
REMARK    3  A    between atoms: _3  and  _6
REMARK    4  A    between atoms: _6  and  _7
REMARK    5  A    between atoms: _17  and  _19
REMARK    6  A    between atoms: _19  and  _20
REMARK    7  A    between atoms: _19  and  _22
REMARK    8  A    between atoms: _22  and  _23
REMARK    9  A    between atoms: _28  and  _29
REMARK   10  A    between atoms: _31  and  _33
REMARK   11  A    between atoms: _33  and  _34
REMARK   12  A    between atoms: _33  and  _36
REMARK   13  A    between atoms: _36  and  _37
REMARK   14  A    between atoms: _39  and  _41
REMARK   15  A    between atoms: _41  and  _42
REMARK   16  A    between atoms: _41  and  _44
REMARK   17  A    between atoms: _44  and  _45
REMARK   18  A    between atoms: _50  and  _52
REMARK   19  A    between atoms: _52  and  _53
REMARK   20  A    between atoms: _52  and  _55
REMARK   21  A    between atoms: _55  and  _56
REMARK   22  A    between atoms: _61  and  _63
REMARK   23  A    between atoms: _63  and  _64
REMARK   24  A    between atoms: _63  and  _66
REMARK   25  A    between atoms: _66  and  _67
REMARK   26  A    between atoms: _70  and  _72
REMARK   27  A    between atoms: _72  and  _73
REMARK   28  A    between atoms: _72  and  _75
REMARK   29  A    between atoms: _75  and  _76
REMARK   30  A    between atoms: _76  and  _77
REMARK   31  A    between atoms: _82  and  _84
REMARK   32  A    between atoms: _95  and  _98
REMARK   33  A    between atoms: _98  and  _99
REMARK   34  A    between atoms: _107  and  _108
REMARK   35  A    between atoms: _116  and  _118
REMARK   36  A    between atoms: _118  and  _119
REMARK   37  A    between atoms: _118  and  _121
REMARK   38  A    between atoms: _121  and  _122
REMARK   39  A    between atoms: _122  and  _123
REMARK   40  A    between atoms: _126  and  _128
REMARK   41  A    between atoms: _128  and  _129
REMARK   42  A    between atoms: _128  and  _131
REMARK   43  A    between atoms: _131  and  _132
REMARK   44  A    between atoms: _132  and  _133
REMARK   45  A    between atoms: _136  and  _138
REMARK   46  A    between atoms: _138  and  _139
REMARK   47  A    between atoms: _138  and  _141
REMARK   48  A    between atoms: _141  and  _142
REMARK   49  A    between atoms: _143  and  ZN_353
REMARK   50  A    between atoms: _147  and  _149
REMARK   51  A    between atoms: _149  and  _150
REMARK   52  A    between atoms: _149  and  _152
REMARK   53  A    between atoms: _152  and  _153
REMARK   54  A    between atoms: _156  and  _158
REMARK   55  A    between atoms: _158  and  _159
REMARK   56  A    between atoms: _158  and  _161
REMARK   57  A    between atoms: _164  and  _166
REMARK   58  A    between atoms: _166  and  _167
REMARK   59  A    between atoms: _166  and  _169
REMARK   60  A    between atoms: _169  and  _170
REMARK   61  A    between atoms: _175  and  _177
REMARK   62  A    between atoms: _177  and  _178
REMARK   63  A    between atoms: _177  and  _180
REMARK   64  A    between atoms: _180  and  _181
REMARK   65  A    between atoms: _187  and  _189
REMARK   66  A    between atoms: _189  and  _190
REMARK   67  A    between atoms: _189  and  _192
REMARK   68  A    between atoms: _195  and  _197
REMARK   69  A    between atoms: _197  and  _198
REMARK   70  A    between atoms: _197  and  _200
REMARK   71  A    between atoms: _200  and  _201
REMARK   72  A    between atoms: _204  and  _206
REMARK   73  A    between atoms: _206  and  _207
REMARK   74  A    between atoms: _210  and  _212
REMARK   75  A    between atoms: _212  and  _213
REMARK   76  A    between atoms: _212  and  _215
REMARK   77  A    between atoms: _218  and  _220
REMARK   78  A    between atoms: _220  and  _221
REMARK   79  A    between atoms: _220  and  _223
REMARK   80  A    between atoms: _223  and  _224
REMARK   81  A    between atoms: _227  and  _229
REMARK   82  A    between atoms: _229  and  _230
REMARK   83  A    between atoms: _229  and  _232
REMARK   84  A    between atoms: _232  and  _233
REMARK   85  A    between atoms: _235  and  _237
REMARK   86  A    between atoms: _237  and  _238
REMARK   87  A    between atoms: _237  and  _240
REMARK   88  A    between atoms: _240  and  _241
REMARK   89  A    between atoms: _244  and  _246
REMARK   90  A    between atoms: _246  and  _247
REMARK   91  A    between atoms: _246  and  _249
REMARK   92  A    between atoms: _249  and  _250
REMARK   93  A    between atoms: _253  and  _255
REMARK   94  A    between atoms: _255  and  _256
REMARK   95  A    between atoms: _255  and  _258
REMARK   96  A    between atoms: _258  and  _259
REMARK   97  A    between atoms: _263  and  _264
REMARK   98  A    between atoms: _270  and  _271
REMARK   99  A    between atoms: _276  and  _278
REMARK  100  A    between atoms: _278  and  _279
REMARK  101  A    between atoms: _278  and  _281
REMARK  102  A    between atoms: _281  and  _282
REMARK  103  A    between atoms: _285  and  _287
REMARK  104  A    between atoms: _287  and  _288
REMARK  105  A    between atoms: _287  and  _290
REMARK  106  A    between atoms: _290  and  _291
REMARK  107  A    between atoms: _294  and  _296
REMARK  108  A    between atoms: _296  and  _297
REMARK  109  A    between atoms: _296  and  _299
REMARK  110  A    between atoms: _301  and  _303
REMARK  111  A    between atoms: _303  and  _304
REMARK  112  A    between atoms: _303  and  _306
REMARK  113  A    between atoms: _309  and  _311
REMARK  114  A    between atoms: _311  and  _312
REMARK  115  A    between atoms: _311  and  _314
REMARK  116  A    between atoms: _314  and  _315
REMARK  117  A    between atoms: _325  and  _327
REMARK  118  A    between atoms: _327  and  _328
REMARK  119  A    between atoms: _327  and  _330
REMARK  120  A    between atoms: _330  and  _331
REMARK  121  A    between atoms: _336  and  _338
REMARK  122  A    between atoms: _338  and  _339
REMARK  123  A    between atoms: _338  and  _341
REMARK  124  A    between atoms: _341  and  _342
REMARK  125  A    between atoms: _342  and  _343
REMARK  126  A    between atoms: _343  and  _344
REMARK                            x       y       z     vdW  Elec       q    Type
REMARK                         _______ _______ _______ _____ _____    ______ ____
ROOT
ATOM      1  CB  PHE A   1      13.130  12.557  13.931  0.00  0.00    +0.051 C 
ENDROOT
BRANCH   1   2
ATOM      2  CG  PHE A   1      13.819  11.231  14.178  0.00  0.00    -0.020 A 
ATOM      3  CD2 PHE A   1      13.168  10.186  14.833  0.00  0.00    -0.004 A 
ATOM      4  CE2 PHE A   1      13.818   9.016  15.074  0.00  0.00    -0.000 A 
ATOM      5  CZ  PHE A   1      15.156   8.878  14.720  0.00  0.00    -0.000 A 
ATOM      6  CE1 PHE A   1      15.833   9.910  14.086  0.00  0.00    -0.000 A 
ATOM      7  CD1 PHE A   1      15.172  11.108  13.847  0.00  0.00    -0.004 A 
ENDBRANCH   1   2
BRANCH   1   8
ATOM      8  CA  PHE A   1      13.210  13.579  15.108  0.00  0.00    +0.137 C 
BRANCH   8   9
ATOM      9  N   PHE A   1      12.501  14.791  14.698  0.00  0.00    -0.239 NA
ATOM     10  H   PHE A   1      12.167  14.868  13.716  0.00  0.00    +0.142 HD
ENDBRANCH   8   9
BRANCH   8  11
ATOM     11  C   PHE A   1      14.624  13.880  15.508  0.00  0.00    +0.224 C 
ATOM     12  O   PHE A   1      15.104  13.302  16.477  0.00  0.00    -0.287 OA
ENDBRANCH   8  11
ENDBRANCH   1   8
TORSDOF 4
REMARK  Name = ../refined-set-2016/4q9y/4q9y_pocket.pdb
REMARK  126 active torsions:
REMARK  status: ('A' for Active; 'I' for Inactive)
REMARK    1  A    between atoms: _1  and  _3
REMARK    2  A    between atoms: _3  and  _4
REMARK    3  A    between atoms: _3  and  _6
REMARK    4  A    between atoms: _6  and  _7
REMARK    5  A    between atoms: _17  and  _19
REMARK    6  A    between atoms: _19  and  _20
REMARK    7  A    between atoms: _19  and  _22
REMARK    8  A    between atoms: _22  and  _23
REMARK    9  A    between atoms: _28  and  _29
REMARK   10  A    between atoms: _31  and  _33
REMARK   11  A    between atoms: _33  and  _34
REMARK   12  A    between atoms: _33  and  _36
REMARK   13  A    between atoms: _36  and  _37
REMARK   14  A    between atoms: _39  and  _41
REMARK   15  A    between atoms: _41  and  _42
REMARK   16  A    between atoms: _41  and  _44
REMARK   17  A    between atoms: _44  and  _45
REMARK   18  A    between atoms: _50  and  _52
REMARK   19  A    between atoms: _52  and  _53
REMARK   20  A    between atoms: _52  and  _55
REMARK   21  A    between atoms: _55  and  _56
REMARK   22  A    between atoms: _61  and  _63
REMARK   23  A    between atoms: _63  and  _64
REMARK   24  A    between atoms: _63  and  _66
REMARK   25  A    between atoms: _66  and  _67
REMARK   26  A    between atoms: _70  and  _72
REMARK   27  A    between atoms: _72  and  _73
REMARK   28  A    between atoms: _72  and  _75
REMARK   29  A    between atoms: _75  and  _76
REMARK   30  A    between atoms: _76  and  _77
REMARK   31  A    between atoms: _82  and  _84
REMARK   32  A    between atoms: _95  and  _98
REMARK   33  A    between atoms: _98  and  _99
REMARK   34  A    between atoms: _107  and  _108
REMARK   35  A    between atoms: _116  and  _118
REMARK   36  A    between atoms: _118  and  _119
REMARK   37  A    between atoms: _118  and  _121
REMARK   38  A    between atoms: _121  and  _122
REMARK   39  A    between atoms: _122  and  _123
REMARK   40  A    between atoms: _126  and  _128
REMARK   41  A    between atoms: _128  and  _129
REMARK   42  A    between atoms: _128  and  _131
REMARK   43  A    between atoms: _131  and  _132
REMARK   44  A    between atoms: _132  and  _133
REMARK   45  A    between atoms: _136  and  _138
REMARK   46  A    between atoms: _138  and  _139
REMARK   47  A    between atoms: _138  and  _141
REMARK   48  A    between atoms: _141  and  _142
REMARK   49  A    between atoms: _143  and  ZN_353
REMARK   50  A    between atoms: _147  and  _149
REMARK   51  A    between atoms: _149  and  _150
REMARK   52  A    between atoms: _149  and  _152
REMARK   53  A    between atoms: _152  and  _153
REMARK   54  A    between atoms: _156  and  _158
REMARK   55  A    between atoms: _158  and  _159
REMARK   56  A    between atoms: _158  and  _161
REMARK   57  A    between atoms: _164  and  _166
REMARK   58  A    between atoms: _166  and  _167
REMARK   59  A    between atoms: _166  and  _169
REMARK   60  A    between atoms: _169  and  _170
REMARK   61  A    between atoms: _175  and  _177
REMARK   62  A    between atoms: _177  and  _178
REMARK   63  A    between atoms: _177  and  _180
REMARK   64  A    between atoms: _180  and  _181
REMARK   65  A    between atoms: _187  and  _189
REMARK   66  A    between atoms: _189  and  _190
REMARK   67  A    between atoms: _189  and  _192
REMARK   68  A    between atoms: _195  and  _197
REMARK   69  A    between atoms: _197  and  _198
REMARK   70  A    between atoms: _197  and  _200
REMARK   71  A    between atoms: _200  and  _201
REMARK   72  A    between atoms: _204  and  _206
REMARK   73  A    between atoms: _206  and  _207
REMARK   74  A    between atoms: _210  and  _212
REMARK   75  A    between atoms: _212  and  _213
REMARK   76  A    between atoms: _212  and  _215
REMARK   77  A    between atoms: _218  and  _220
REMARK   78  A    between atoms: _220  and  _221
REMARK   79  A    between atoms: _220  and  _223
REMARK   80  A    between atoms: _223  and  _224
REMARK   81  A    between atoms: _227  and  _229
REMARK   82  A    between atoms: _229  and  _230
REMARK   83  A    between atoms: _229  and  _232
REMARK   84  A    between atoms: _232  and  _233
REMARK   85  A    between atoms: _235  and  _237
REMARK   86  A    between atoms: _237  and  _238
REMARK   87  A    between atoms: _237  and  _240
REMARK   88  A    between atoms: _240  and  _241
REMARK   89  A    between atoms: _244  and  _246
REMARK   90  A    between atoms: _246  and  _247
REMARK   91  A    between atoms: _246  and  _249
REMARK   92  A    between atoms: _249  and  _250
REMARK   93  A    between atoms: _253  and  _255
REMARK   94  A    between atoms: _255  and  _256
REMARK   95  A    between atoms: _255  and  _258
REMARK   96  A    between atoms: _258  and  _259
REMARK   97  A    between atoms: _263  and  _264
REMARK   98  A    between atoms: _270  and  _271
REMARK   99  A    between atoms: _276  and  _278
REMARK  100  A    between atoms: _278  and  _279
REMARK  101  A    between atoms: _278  and  _281
REMARK  102  A    between atoms: _281  and  _282
REMARK  103  A    between atoms: _285  and  _287
REMARK  104  A    between atoms: _287  and  _288
REMARK  105  A    between atoms: _287  and  _290
REMARK  106  A    between atoms: _290  and  _291
REMARK  107  A    between atoms: _294  and  _296
REMARK  108  A    between atoms: _296  and  _297
REMARK  109  A    between atoms: _296  and  _299
REMARK  110  A    between atoms: _301  and  _303
REMARK  111  A    between atoms: _303  and  _304
REMARK  112  A    between atoms: _303  and  _306
REMARK  113  A    between atoms: _309  and  _311
REMARK  114  A    between atoms: _311  and  _312
REMARK  115  A    between atoms: _311  and  _314
REMARK  116  A    between atoms: _314  and  _315
REMARK  117  A    between atoms: _325  and  _327
REMARK  118  A    between atoms: _327  and  _328
REMARK  119  A    between atoms: _327  and  _330
REMARK  120  A    between atoms: _330  and  _331
REMARK  121  A    between atoms: _336  and  _338
REMARK  122  A    between atoms: _338  and  _339
REMARK  123  A    between atoms: _338  and  _341
REMARK  124  A    between atoms: _341  and  _342
REMARK  125  A    between atoms: _342  and  _343
REMARK  126  A    between atoms: _343  and  _344
REMARK                            x       y       z     vdW  Elec       q    Type
REMARK                         _______ _______ _______ _____ _____    ______ ____
ROOT
ATOM      1  CA  VAL A   1      17.195  11.839  19.654  0.00  0.00    +0.133 C 
ENDROOT
BRANCH   1   2
ATOM      2  CB  VAL A   1      17.657  10.986  18.410  0.00  0.00    +0.023 C 
ATOM      3  CG2 VAL A   1      16.392  10.287  17.824  0.00  0.00    +0.002 C 
ATOM      4  CG1 VAL A   1      18.369  11.850  17.404  0.00  0.00    +0.002 C 
ENDBRANCH   1   2
BRANCH   1   5
ATOM      5  N   VAL A   1      16.115  12.846  19.266  0.00  0.00    -0.239 NA
ATOM      6  H   VAL A   1      16.014  13.187  18.289  0.00  0.00    +0.142 HD
ENDBRANCH   1   5
BRANCH   1   7
ATOM      7  C   VAL A   1      18.376  12.477  20.346  0.00  0.00    +0.224 C 
ATOM      8  O   VAL A   1      19.330  11.734  20.687  0.00  0.00    -0.287 OA
ENDBRANCH   1   7
TORSDOF 3
REMARK  Name = ../refined-set-2016/4q9y/4q9y_pocket.pdb
REMARK  126 active torsions:
REMARK  status: ('A' for Active; 'I' for Inactive)
REMARK    1  A    between atoms: _1  and  _3
REMARK    2  A    between atoms: _3  and  _4
REMARK    3  A    between atoms: _3  and  _6
REMARK    4  A    between atoms: _6  and  _7
REMARK    5  A    between atoms: _17  and  _19
REMARK    6  A    between atoms: _19  and  _20
REMARK    7  A    between atoms: _19  and  _22
REMARK    8  A    between atoms: _22  and  _23
REMARK    9  A    between atoms: _28  and  _29
REMARK   10  A    between atoms: _31  and  _33
REMARK   11  A    between atoms: _33  and  _34
REMARK   12  A    between atoms: _33  and  _36
REMARK   13  A    between atoms: _36  and  _37
REMARK   14  A    between atoms: _39  and  _41
REMARK   15  A    between atoms: _41  and  _42
REMARK   16  A    between atoms: _41  and  _44
REMARK   17  A    between atoms: _44  and  _45
REMARK   18  A    between atoms: _50  and  _52
REMARK   19  A    between atoms: _52  and  _53
REMARK   20  A    between atoms: _52  and  _55
REMARK   21  A    between atoms: _55  and  _56
REMARK   22  A    between atoms: _61  and  _63
REMARK   23  A    between atoms: _63  and  _64
REMARK   24  A    between atoms: _63  and  _66
REMARK   25  A    between atoms: _66  and  _67
REMARK   26  A    between atoms: _70  and  _72
REMARK   27  A    between atoms: _72  and  _73
REMARK   28  A    between atoms: _72  and  _75
REMARK   29  A    between atoms: _75  and  _76
REMARK   30  A    between atoms: _76  and  _77
REMARK   31  A    between atoms: _82  and  _84
REMARK   32  A    between atoms: _95  and  _98
REMARK   33  A    between atoms: _98  and  _99
REMARK   34  A    between atoms: _107  and  _108
REMARK   35  A    between atoms: _116  and  _118
REMARK   36  A    between atoms: _118  and  _119
REMARK   37  A    between atoms: _118  and  _121
REMARK   38  A    between atoms: _121  and  _122
REMARK   39  A    between atoms: _122  and  _123
REMARK   40  A    between atoms: _126  and  _128
REMARK   41  A    between atoms: _128  and  _129
REMARK   42  A    between atoms: _128  and  _131
REMARK   43  A    between atoms: _131  and  _132
REMARK   44  A    between atoms: _132  and  _133
REMARK   45  A    between atoms: _136  and  _138
REMARK   46  A    between atoms: _138  and  _139
REMARK   47  A    between atoms: _138  and  _141
REMARK   48  A    between atoms: _141  and  _142
REMARK   49  A    between atoms: _143  and  ZN_353
REMARK   50  A    between atoms: _147  and  _149
REMARK   51  A    between atoms: _149  and  _150
REMARK   52  A    between atoms: _149  and  _152
REMARK   53  A    between atoms: _152  and  _153
REMARK   54  A    between atoms: _156  and  _158
REMARK   55  A    between atoms: _158  and  _159
REMARK   56  A    between atoms: _158  and  _161
REMARK   57  A    between atoms: _164  and  _166
REMARK   58  A    between atoms: _166  and  _167
REMARK   59  A    between atoms: _166  and  _169
REMARK   60  A    between atoms: _169  and  _170
REMARK   61  A    between atoms: _175  and  _177
REMARK   62  A    between atoms: _177  and  _178
REMARK   63  A    between atoms: _177  and  _180
REMARK   64  A    between atoms: _180  and  _181
REMARK   65  A    between atoms: _187  and  _189
REMARK   66  A    between atoms: _189  and  _190
REMARK   67  A    between atoms: _189  and  _192
REMARK   68  A    between atoms: _195  and  _197
REMARK   69  A    between atoms: _197  and  _198
REMARK   70  A    between atoms: _197  and  _200
REMARK   71  A    between atoms: _200  and  _201
REMARK   72  A    between atoms: _204  and  _206
REMARK   73  A    between atoms: _206  and  _207
REMARK   74  A    between atoms: _210  and  _212
REMARK   75  A    between atoms: _212  and  _213
REMARK   76  A    between atoms: _212  and  _215
REMARK   77  A    between atoms: _218  and  _220
REMARK   78  A    between atoms: _220  and  _221
REMARK   79  A    between atoms: _220  and  _223
REMARK   80  A    between atoms: _223  and  _224
REMARK   81  A    between atoms: _227  and  _229
REMARK   82  A    between atoms: _229  and  _230
REMARK   83  A    between atoms: _229  and  _232
REMARK   84  A    between atoms: _232  and  _233
REMARK   85  A    between atoms: _235  and  _237
REMARK   86  A    between atoms: _237  and  _238
REMARK   87  A    between atoms: _237  and  _240
REMARK   88  A    between atoms: _240  and  _241
REMARK   89  A    between atoms: _244  and  _246
REMARK   90  A    between atoms: _246  and  _247
REMARK   91  A    between atoms: _246  and  _249
REMARK   92  A    between atoms: _249  and  _250
REMARK   93  A    between atoms: _253  and  _255
REMARK   94  A    between atoms: _255  and  _256
REMARK   95  A    between atoms: _255  and  _258
REMARK   96  A    between atoms: _258  and  _259
REMARK   97  A    between atoms: _263  and  _264
REMARK   98  A    between atoms: _270  and  _271
REMARK   99  A    between atoms: _276  and  _278
REMARK  100  A    between atoms: _278  and  _279
REMARK  101  A    between atoms: _278  and  _281
REMARK  102  A    between atoms: _281  and  _282
REMARK  103  A    between atoms: _285  and  _287
REMARK  104  A    between atoms: _287  and  _288
REMARK  105  A    between atoms: _287  and  _290
REMARK  106  A    between atoms: _290  and  _291
REMARK  107  A    between atoms: _294  and  _296
REMARK  108  A    between atoms: _296  and  _297
REMARK  109  A    between atoms: _296  and  _299
REMARK  110  A    between atoms: _301  and  _303
REMARK  111  A    between atoms: _303  and  _304
REMARK  112  A    between atoms: _303  and  _306
REMARK  113  A    between atoms: _309  and  _311
REMARK  114  A    between atoms: _311  and  _312
REMARK  115  A    between atoms: _311  and  _314
REMARK  116  A    between atoms: _314  and  _315
REMARK  117  A    between atoms: _325  and  _327
REMARK  118  A    between atoms: _327  and  _328
REMARK  119  A    between atoms: _327  and  _330
REMARK  120  A    between atoms: _330  and  _331
REMARK  121  A    between atoms: _336  and  _338
REMARK  122  A    between atoms: _338  and  _339
REMARK  123  A    between atoms: _338  and  _341
REMARK  124  A    between atoms: _341  and  _342
REMARK  125  A    between atoms: _342  and  _343
REMARK  126  A    between atoms: _343  and  _344
REMARK                            x       y       z     vdW  Elec       q    Type
REMARK                         _______ _______ _______ _____ _____    ______ ____
ROOT
ATOM      1  C   ALA A   2       8.574   4.838  20.813  0.00  0.00    +0.241 C 
ATOM      2  N   VAL A   3       9.011   3.605  21.133  0.00  0.00    -0.297 N 
ATOM      3  H   VAL A   3       9.381   3.402  22.083  0.00  0.00    +0.150 HD
ATOM      4  O   ALA A   2       8.234   5.170  19.670  0.00  0.00    -0.273 OA
ENDROOT
BRANCH   1   5
ATOM      5  CA  ALA A   2       8.666   5.875  21.917  0.00  0.00    +0.149 C 
ATOM      6  CB  ALA A   2       7.234   6.338  22.344  0.00  0.00    +0.031 C 
BRANCH   5   9
ATOM      7  C   LEU A   1      10.463   7.494  22.097  0.00  0.00    +0.238 C 
ATOM      8  O   LEU A   1      10.686   7.214  23.254  0.00  0.00    -0.274 OA
ATOM      9  N   ALA A   2       9.456   6.994  21.407  0.00  0.00    -0.297 N 
ATOM     10  H   ALA A   2       9.219   7.404  20.481  0.00  0.00    +0.150 HD
BRANCH   7  11
ATOM     11  CA  LEU A   1      11.404   8.389  21.300  0.00  0.00    +0.145 C 
BRANCH  11  12
ATOM     12  N   LEU A   1      12.047   9.389  22.213  0.00  0.00    -0.238 NA
ATOM     13  H   LEU A   1      12.577   9.081  23.053  0.00  0.00    +0.142 HD
ENDBRANCH  11  12
BRANCH  11  14
ATOM     14  CB  LEU A   1      12.434   7.519  20.517  0.00  0.00    +0.026 C 
BRANCH  14  15
ATOM     15  CG  LEU A   1      13.347   8.332  19.631  0.00  0.00    +0.002 C 
ATOM     16  CD2 LEU A   1      14.236   7.273  18.940  0.00  0.00    +0.000 C 
ATOM     17  CD1 LEU A   1      12.629   9.117  18.542  0.00  0.00    +0.000 C 
ENDBRANCH  14  15
ENDBRANCH  11  14
ENDBRANCH   7  11
ENDBRANCH   5   9
ENDBRANCH   1   5
BRANCH   2  18
ATOM     18  CA  VAL A   3       8.952   2.546  20.101  0.00  0.00    +0.149 C 
BRANCH  18  19
ATOM     19  C   VAL A   3       7.939   1.521  20.560  0.00  0.00    +0.241 C 
ATOM     20  O   VAL A   3       8.090   0.964  21.664  0.00  0.00    -0.273 OA
ATOM     21  N   LEU A   4       6.943   1.264  19.686  0.00  0.00    -0.298 N 
ATOM     22  H   LEU A   4       6.847   1.848  18.831  0.00  0.00    +0.150 HD
BRANCH  21  23
ATOM     23  CA  LEU A   4       5.997   0.174  19.927  0.00  0.00    +0.137 C 
BRANCH  23  24
ATOM     24  C   LEU A   4       6.581  -1.070  19.276  0.00  0.00    +0.227 C 
ATOM     25  O   LEU A   4       6.730  -1.110  18.051  0.00  0.00    -0.286 OA
ENDBRANCH  23  24
BRANCH  23  26
ATOM     26  CB  LEU A   4       4.638   0.580  19.297  0.00  0.00    +0.028 C 
BRANCH  26  27
ATOM     27  CG  LEU A   4       3.550  -0.430  19.454  0.00  0.00    +0.002 C 
ATOM     28  CD2 LEU A   4       3.177  -0.660  20.915  0.00  0.00    +0.000 C 
ATOM     29  CD1 LEU A   4       2.280   0.272  18.782  0.00  0.00    +0.000 C 
ENDBRANCH  26  27
ENDBRANCH  23  26
ENDBRANCH  21  23
ENDBRANCH  18  19
BRANCH  18  30
ATOM     30  CB  VAL A   3      10.307   1.925  19.834  0.00  0.00    +0.027 C 
ATOM     31  CG2 VAL A   3      11.293   2.976  19.353  0.00  0.00    +0.002 C 
ATOM     32  CG1 VAL A   3      10.177   0.875  18.658  0.00  0.00    +0.002 C 
ENDBRANCH  18  30
ENDBRANCH   2  18
TORSDOF 13
REMARK  Name = ../refined-set-2016/4q9y/4q9y_pocket.pdb
REMARK  126 active torsions:
REMARK  status: ('A' for Active; 'I' for Inactive)
REMARK    1  A    between atoms: _1  and  _3
REMARK    2  A    between atoms: _3  and  _4
REMARK    3  A    between atoms: _3  and  _6
REMARK    4  A    between atoms: _6  and  _7
REMARK    5  A    between atoms: _17  and  _19
REMARK    6  A    between atoms: _19  and  _20
REMARK    7  A    between atoms: _19  and  _22
REMARK    8  A    between atoms: _22  and  _23
REMARK    9  A    between atoms: _28  and  _29
REMARK   10  A    between atoms: _31  and  _33
REMARK   11  A    between atoms: _33  and  _34
REMARK   12  A    between atoms: _33  and  _36
REMARK   13  A    between atoms: _36  and  _37
REMARK   14  A    between atoms: _39  and  _41
REMARK   15  A    between atoms: _41  and  _42
REMARK   16  A    between atoms: _41  and  _44
REMARK   17  A    between atoms: _44  and  _45
REMARK   18  A    between atoms: _50  and  _52
REMARK   19  A    between atoms: _52  and  _53
REMARK   20  A    between atoms: _52  and  _55
REMARK   21  A    between atoms: _55  and  _56
REMARK   22  A    between atoms: _61  and  _63
REMARK   23  A    between atoms: _63  and  _64
REMARK   24  A    between atoms: _63  and  _66
REMARK   25  A    between atoms: _66  and  _67
REMARK   26  A    between atoms: _70  and  _72
REMARK   27  A    between atoms: _72  and  _73
REMARK   28  A    between atoms: _72  and  _75
REMARK   29  A    between atoms: _75  and  _76
REMARK   30  A    between atoms: _76  and  _77
REMARK   31  A    between atoms: _82  and  _84
REMARK   32  A    between atoms: _95  and  _98
REMARK   33  A    between atoms: _98  and  _99
REMARK   34  A    between atoms: _107  and  _108
REMARK   35  A    between atoms: _116  and  _118
REMARK   36  A    between atoms: _118  and  _119
REMARK   37  A    between atoms: _118  and  _121
REMARK   38  A    between atoms: _121  and  _122
REMARK   39  A    between atoms: _122  and  _123
REMARK   40  A    between atoms: _126  and  _128
REMARK   41  A    between atoms: _128  and  _129
REMARK   42  A    between atoms: _128  and  _131
REMARK   43  A    between atoms: _131  and  _132
REMARK   44  A    between atoms: _132  and  _133
REMARK   45  A    between atoms: _136  and  _138
REMARK   46  A    between atoms: _138  and  _139
REMARK   47  A    between atoms: _138  and  _141
REMARK   48  A    between atoms: _141  and  _142
REMARK   49  A    between atoms: _143  and  ZN_353
REMARK   50  A    between atoms: _147  and  _149
REMARK   51  A    between atoms: _149  and  _150
REMARK   52  A    between atoms: _149  and  _152
REMARK   53  A    between atoms: _152  and  _153
REMARK   54  A    between atoms: _156  and  _158
REMARK   55  A    between atoms: _158  and  _159
REMARK   56  A    between atoms: _158  and  _161
REMARK   57  A    between atoms: _164  and  _166
REMARK   58  A    between atoms: _166  and  _167
REMARK   59  A    between atoms: _166  and  _169
REMARK   60  A    between atoms: _169  and  _170
REMARK   61  A    between atoms: _175  and  _177
REMARK   62  A    between atoms: _177  and  _178
REMARK   63  A    between atoms: _177  and  _180
REMARK   64  A    between atoms: _180  and  _181
REMARK   65  A    between atoms: _187  and  _189
REMARK   66  A    between atoms: _189  and  _190
REMARK   67  A    between atoms: _189  and  _192
REMARK   68  A    between atoms: _195  and  _197
REMARK   69  A    between atoms: _197  and  _198
REMARK   70  A    between atoms: _197  and  _200
REMARK   71  A    between atoms: _200  and  _201
REMARK   72  A    between atoms: _204  and  _206
REMARK   73  A    between atoms: _206  and  _207
REMARK   74  A    between atoms: _210  and  _212
REMARK   75  A    between atoms: _212  and  _213
REMARK   76  A    between atoms: _212  and  _215
REMARK   77  A    between atoms: _218  and  _220
REMARK   78  A    between atoms: _220  and  _221
REMARK   79  A    between atoms: _220  and  _223
REMARK   80  A    between atoms: _223  and  _224
REMARK   81  A    between atoms: _227  and  _229
REMARK   82  A    between atoms: _229  and  _230
REMARK   83  A    between atoms: _229  and  _232
REMARK   84  A    between atoms: _232  and  _233
REMARK   85  A    between atoms: _235  and  _237
REMARK   86  A    between atoms: _237  and  _238
REMARK   87  A    between atoms: _237  and  _240
REMARK   88  A    between atoms: _240  and  _241
REMARK   89  A    between atoms: _244  and  _246
REMARK   90  A    between atoms: _246  and  _247
REMARK   91  A    between atoms: _246  and  _249
REMARK   92  A    between atoms: _249  and  _250
REMARK   93  A    between atoms: _253  and  _255
REMARK   94  A    between atoms: _255  and  _256
REMARK   95  A    between atoms: _255  and  _258
REMARK   96  A    between atoms: _258  and  _259
REMARK   97  A    between atoms: _263  and  _264
REMARK   98  A    between atoms: _270  and  _271
REMARK   99  A    between atoms: _276  and  _278
REMARK  100  A    between atoms: _278  and  _279
REMARK  101  A    between atoms: _278  and  _281
REMARK  102  A    between atoms: _281  and  _282
REMARK  103  A    between atoms: _285  and  _287
REMARK  104  A    between atoms: _287  and  _288
REMARK  105  A    between atoms: _287  and  _290
REMARK  106  A    between atoms: _290  and  _291
REMARK  107  A    between atoms: _294  and  _296
REMARK  108  A    between atoms: _296  and  _297
REMARK  109  A    between atoms: _296  and  _299
REMARK  110  A    between atoms: _301  and  _303
REMARK  111  A    between atoms: _303  and  _304
REMARK  112  A    between atoms: _303  and  _306
REMARK  113  A    between atoms: _309  and  _311
REMARK  114  A    between atoms: _311  and  _312
REMARK  115  A    between atoms: _311  and  _314
REMARK  116  A    between atoms: _314  and  _315
REMARK  117  A    between atoms: _325  and  _327
REMARK  118  A    between atoms: _327  and  _328
REMARK  119  A    between atoms: _327  and  _330
REMARK  120  A    between atoms: _330  and  _331
REMARK  121  A    between atoms: _336  and  _338
REMARK  122  A    between atoms: _338  and  _339
REMARK  123  A    between atoms: _338  and  _341
REMARK  124  A    between atoms: _341  and  _342
REMARK  125  A    between atoms: _342  and  _343
REMARK  126  A    between atoms: _343  and  _344
REMARK                            x       y       z     vdW  Elec       q    Type
REMARK                         _______ _______ _______ _____ _____    ______ ____
ROOT
ATOM      1  C   THR A   4      21.871   0.925  16.191  0.00  0.00    +0.246 C 
ATOM      2  O   THR A   4      21.379   1.927  16.720  0.00  0.00    -0.273 OA
ATOM      3  N   PRO A   5      23.179   0.858  15.810  0.00  0.00    -0.272 N 
ATOM      4  CA  PRO A   5      23.912   2.099  15.869  0.00  0.00    +0.152 C 
ATOM      5  CB  PRO A   5      25.163   1.772  15.014  0.00  0.00    +0.031 C 
ATOM      6  CG  PRO A   5      25.367   0.311  15.336  0.00  0.00    +0.024 C 
ATOM      7  CD  PRO A   5      23.968  -0.272  15.281  0.00  0.00    +0.094 C 
ENDROOT
BRANCH   4   8
ATOM      8  C   PRO A   5      23.096   3.280  15.259  0.00  0.00    +0.244 C 
ATOM      9  N   PRO A   6      23.099   4.447  15.856  0.00  0.00    -0.272 N 
ATOM     10  CA  PRO A   6      24.019   4.868  16.905  0.00  0.00    +0.152 C 
ATOM     11  CB  PRO A   6      24.052   6.410  16.740  0.00  0.00    +0.031 C 
ATOM     12  CG  PRO A   6      22.707   6.731  16.148  0.00  0.00    +0.024 C 
ATOM     13  CD  PRO A   6      22.347   5.583  15.263  0.00  0.00    +0.094 C 
ATOM     14  O   PRO A   5      22.518   3.149  14.128  0.00  0.00    -0.273 OA
BRANCH  10  15
ATOM     15  C   PRO A   6      23.621   4.506  18.362  0.00  0.00    +0.241 C 
ATOM     16  O   PRO A   6      24.214   4.981  19.331  0.00  0.00    -0.273 OA
ATOM     17  N   LEU A   7      22.651   3.597  18.471  0.00  0.00    -0.297 N 
ATOM     18  H   LEU A   7      22.115   3.276  17.639  0.00  0.00    +0.150 HD
BRANCH  17  19
ATOM     19  CA  LEU A   7      22.367   3.064  19.818  0.00  0.00    +0.149 C 
BRANCH  19  20
ATOM     20  C   LEU A   7      21.949   4.090  20.905  0.00  0.00    +0.241 C 
ATOM     21  O   LEU A   7      22.121   3.846  22.102  0.00  0.00    -0.273 OA
ATOM     22  N   LEU A   8      21.306   5.146  20.444  0.00  0.00    -0.298 N 
ATOM     23  H   LEU A   8      21.000   5.160  19.450  0.00  0.00    +0.150 HD
BRANCH  22  24
ATOM     24  CA  LEU A   8      21.012   6.304  21.303  0.00  0.00    +0.137 C 
BRANCH  24  25
ATOM     25  C   LEU A   8      19.996   5.951  22.425  0.00  0.00    +0.227 C 
ATOM     26  O   LEU A   8      18.974   5.252  22.193  0.00  0.00    -0.286 OA
ENDBRANCH  24  25
BRANCH  24  27
ATOM     27  CB  LEU A   8      20.484   7.496  20.471  0.00  0.00    +0.028 C 
BRANCH  27  28
ATOM     28  CG  LEU A   8      21.511   7.969  19.420  0.00  0.00    +0.002 C 
ATOM     29  CD2 LEU A   8      22.721   8.577  20.152  0.00  0.00    +0.000 C 
ATOM     30  CD1 LEU A   8      20.839   8.942  18.452  0.00  0.00    +0.000 C 
ENDBRANCH  27  28
ENDBRANCH  24  27
ENDBRANCH  22  24
ENDBRANCH  19  20
BRANCH  19  31
ATOM     31  CB  LEU A   7      23.511   2.162  20.365  0.00  0.00    +0.029 C 
BRANCH  31  32
ATOM     32  CG  LEU A   7      23.851   1.025  19.431  0.00  0.00    +0.002 C 
ATOM     33  CD2 LEU A   7      25.211   0.324  19.914  0.00  0.00    +0.000 C 
ATOM     34  CD1 LEU A   7      22.800  -0.082  19.387  0.00  0.00    +0.000 C 
ENDBRANCH  31  32
ENDBRANCH  19  31
ENDBRANCH  17  19
ENDBRANCH  10  15
ENDBRANCH   4   8
BRANCH   1  35
ATOM     35  CA  THR A   4      21.033  -0.303  15.932  0.00  0.00    +0.176 C 
BRANCH  35  38
ATOM     36  C   THR A   3      19.905  -1.455  17.805  0.00  0.00    +0.243 C 
ATOM     37  O   THR A   3      20.584  -2.451  17.598  0.00  0.00    -0.273 OA
ATOM     38  N   THR A   4      20.004  -0.391  17.013  0.00  0.00    -0.295 N 
ATOM     39  H   THR A   4      19.346   0.403  17.150  0.00  0.00    +0.150 HD
BRANCH  36  40
ATOM     40  CA  THR A   3      18.927  -1.468  18.980  0.00  0.00    +0.176 C 
BRANCH  40  43
ATOM     41  C   LEU A   2      18.569   0.796  19.731  0.00  0.00    +0.241 C 
ATOM     42  O   LEU A   2      19.622   0.703  20.458  0.00  0.00    -0.273 OA
ATOM     43  N   THR A   3      18.173  -0.189  18.966  0.00  0.00    -0.295 N 
ATOM     44  H   THR A   3      17.339  -0.077  18.355  0.00  0.00    +0.150 HD
BRANCH  41  45
ATOM     45  CA  LEU A   2      17.809   2.118  19.610  0.00  0.00    +0.149 C 
BRANCH  45  48
ATOM     46  C   SER A   1      17.332   2.116  22.011  0.00  0.00    +0.241 C 
ATOM     47  O   SER A   1      16.566   1.109  21.900  0.00  0.00    -0.274 OA
ATOM     48  N   LEU A   2      17.864   2.744  20.951  0.00  0.00    -0.297 N 
ATOM     49  H   LEU A   2      18.316   3.673  21.072  0.00  0.00    +0.150 HD
BRANCH  46  50
ATOM     50  CA  SER A   1      17.758   2.610  23.409  0.00  0.00    +0.174 C 
BRANCH  50  51
ATOM     51  N   SER A   1      17.019   1.962  24.492  0.00  0.00    -0.236 NA
ATOM     52  H   SER A   1      16.843   0.938  24.443  0.00  0.00    +0.142 HD
ENDBRANCH  50  51
BRANCH  50  53
ATOM     53  CB  SER A   1      19.254   2.242  23.506  0.00  0.00    +0.163 C 
BRANCH  53  54
ATOM     54  OG  SER A   1      19.550   0.855  23.198  0.00  0.00    -0.380 OA
ATOM     55  H   SER A   1      19.262   0.655  22.272  0.00  0.00    +0.211 HD
ENDBRANCH  53  54
ENDBRANCH  50  53
ENDBRANCH  46  50
ENDBRANCH  45  48
BRANCH  45  56
ATOM     56  CB  LEU A   2      18.605   2.988  18.638  0.00  0.00    +0.029 C 
BRANCH  56  57
ATOM     57  CG  LEU A   2      17.866   4.066  17.900  0.00  0.00    +0.002 C 
ATOM     58  CD2 LEU A   2      17.236   5.061  18.895  0.00  0.00    +0.000 C 
ATOM     59  CD1 LEU A   2      18.786   4.747  16.845  0.00  0.00    +0.000 C 
ENDBRANCH  56  57
ENDBRANCH  45  56
ENDBRANCH  41  45
ENDBRANCH  40  43
BRANCH  40  60
ATOM     60  CB  THR A   3      17.966  -2.591  18.824  0.00  0.00    +0.137 C 
ATOM     61  CG2 THR A   3      16.875  -2.477  19.888  0.00  0.00    +0.034 C 
BRANCH  60  62
ATOM     62  OG1 THR A   3      17.374  -2.475  17.528  0.00  0.00    -0.382 OA
ATOM     63  HG1 THR A   3      16.727  -3.212  17.395  0.00  0.00    +0.210 HD
ENDBRANCH  60  62
ENDBRANCH  40  60
ENDBRANCH  36  40
ENDBRANCH  35  38
BRANCH  35  64
ATOM     64  CB  THR A   4      20.304  -0.145  14.592  0.00  0.00    +0.137 C 
ATOM     65  CG2 THR A   4      19.711  -1.462  14.196  0.00  0.00    +0.034 C 
BRANCH  64  66
ATOM     66  OG1 THR A   4      19.268   0.844  14.760  0.00  0.00    -0.382 OA
ATOM     67  HG1 THR A   4      19.676   1.705  15.031  0.00  0.00    +0.210 HD
ENDBRANCH  64  66
ENDBRANCH  35  64
ENDBRANCH   1  35
TORSDOF 26
REMARK  Name = ../refined-set-2016/4q9y/4q9y_pocket.pdb
REMARK  126 active torsions:
REMARK  status: ('A' for Active; 'I' for Inactive)
REMARK    1  A    between atoms: _1  and  _3
REMARK    2  A    between atoms: _3  and  _4
REMARK    3  A    between atoms: _3  and  _6
REMARK    4  A    between atoms: _6  and  _7
REMARK    5  A    between atoms: _17  and  _19
REMARK    6  A    between atoms: _19  and  _20
REMARK    7  A    between atoms: _19  and  _22
REMARK    8  A    between atoms: _22  and  _23
REMARK    9  A    between atoms: _28  and  _29
REMARK   10  A    between atoms: _31  and  _33
REMARK   11  A    between atoms: _33  and  _34
REMARK   12  A    between atoms: _33  and  _36
REMARK   13  A    between atoms: _36  and  _37
REMARK   14  A    between atoms: _39  and  _41
REMARK   15  A    between atoms: _41  and  _42
REMARK   16  A    between atoms: _41  and  _44
REMARK   17  A    between atoms: _44  and  _45
REMARK   18  A    between atoms: _50  and  _52
REMARK   19  A    between atoms: _52  and  _53
REMARK   20  A    between atoms: _52  and  _55
REMARK   21  A    between atoms: _55  and  _56
REMARK   22  A    between atoms: _61  and  _63
REMARK   23  A    between atoms: _63  and  _64
REMARK   24  A    between atoms: _63  and  _66
REMARK   25  A    between atoms: _66  and  _67
REMARK   26  A    between atoms: _70  and  _72
REMARK   27  A    between atoms: _72  and  _73
REMARK   28  A    between atoms: _72  and  _75
REMARK   29  A    between atoms: _75  and  _76
REMARK   30  A    between atoms: _76  and  _77
REMARK   31  A    between atoms: _82  and  _84
REMARK   32  A    between atoms: _95  and  _98
REMARK   33  A    between atoms: _98  and  _99
REMARK   34  A    between atoms: _107  and  _108
REMARK   35  A    between atoms: _116  and  _118
REMARK   36  A    between atoms: _118  and  _119
REMARK   37  A    between atoms: _118  and  _121
REMARK   38  A    between atoms: _121  and  _122
REMARK   39  A    between atoms: _122  and  _123
REMARK   40  A    between atoms: _126  and  _128
REMARK   41  A    between atoms: _128  and  _129
REMARK   42  A    between atoms: _128  and  _131
REMARK   43  A    between atoms: _131  and  _132
REMARK   44  A    between atoms: _132  and  _133
REMARK   45  A    between atoms: _136  and  _138
REMARK   46  A    between atoms: _138  and  _139
REMARK   47  A    between atoms: _138  and  _141
REMARK   48  A    between atoms: _141  and  _142
REMARK   49  A    between atoms: _143  and  ZN_353
REMARK   50  A    between atoms: _147  and  _149
REMARK   51  A    between atoms: _149  and  _150
REMARK   52  A    between atoms: _149  and  _152
REMARK   53  A    between atoms: _152  and  _153
REMARK   54  A    between atoms: _156  and  _158
REMARK   55  A    between atoms: _158  and  _159
REMARK   56  A    between atoms: _158  and  _161
REMARK   57  A    between atoms: _164  and  _166
REMARK   58  A    between atoms: _166  and  _167
REMARK   59  A    between atoms: _166  and  _169
REMARK   60  A    between atoms: _169  and  _170
REMARK   61  A    between atoms: _175  and  _177
REMARK   62  A    between atoms: _177  and  _178
REMARK   63  A    between atoms: _177  and  _180
REMARK   64  A    between atoms: _180  and  _181
REMARK   65  A    between atoms: _187  and  _189
REMARK   66  A    between atoms: _189  and  _190
REMARK   67  A    between atoms: _189  and  _192
REMARK   68  A    between atoms: _195  and  _197
REMARK   69  A    between atoms: _197  and  _198
REMARK   70  A    between atoms: _197  and  _200
REMARK   71  A    between atoms: _200  and  _201
REMARK   72  A    between atoms: _204  and  _206
REMARK   73  A    between atoms: _206  and  _207
REMARK   74  A    between atoms: _210  and  _212
REMARK   75  A    between atoms: _212  and  _213
REMARK   76  A    between atoms: _212  and  _215
REMARK   77  A    between atoms: _218  and  _220
REMARK   78  A    between atoms: _220  and  _221
REMARK   79  A    between atoms: _220  and  _223
REMARK   80  A    between atoms: _223  and  _224
REMARK   81  A    between atoms: _227  and  _229
REMARK   82  A    between atoms: _229  and  _230
REMARK   83  A    between atoms: _229  and  _232
REMARK   84  A    between atoms: _232  and  _233
REMARK   85  A    between atoms: _235  and  _237
REMARK   86  A    between atoms: _237  and  _238
REMARK   87  A    between atoms: _237  and  _240
REMARK   88  A    between atoms: _240  and  _241
REMARK   89  A    between atoms: _244  and  _246
REMARK   90  A    between atoms: _246  and  _247
REMARK   91  A    between atoms: _246  and  _249
REMARK   92  A    between atoms: _249  and  _250
REMARK   93  A    between atoms: _253  and  _255
REMARK   94  A    between atoms: _255  and  _256
REMARK   95  A    between atoms: _255  and  _258
REMARK   96  A    between atoms: _258  and  _259
REMARK   97  A    between atoms: _263  and  _264
REMARK   98  A    between atoms: _270  and  _271
REMARK   99  A    between atoms: _276  and  _278
REMARK  100  A    between atoms: _278  and  _279
REMARK  101  A    between atoms: _278  and  _281
REMARK  102  A    between atoms: _281  and  _282
REMARK  103  A    between atoms: _285  and  _287
REMARK  104  A    between atoms: _287  and  _288
REMARK  105  A    between atoms: _287  and  _290
REMARK  106  A    between atoms: _290  and  _291
REMARK  107  A    between atoms: _294  and  _296
REMARK  108  A    between atoms: _296  and  _297
REMARK  109  A    between atoms: _296  and  _299
REMARK  110  A    between atoms: _301  and  _303
REMARK  111  A    between atoms: _303  and  _304
REMARK  112  A    between atoms: _303  and  _306
REMARK  113  A    between atoms: _309  and  _311
REMARK  114  A    between atoms: _311  and  _312
REMARK  115  A    between atoms: _311  and  _314
REMARK  116  A    between atoms: _314  and  _315
REMARK  117  A    between atoms: _325  and  _327
REMARK  118  A    between atoms: _327  and  _328
REMARK  119  A    between atoms: _327  and  _330
REMARK  120  A    between atoms: _330  and  _331
REMARK  121  A    between atoms: _336  and  _338
REMARK  122  A    between atoms: _338  and  _339
REMARK  123  A    between atoms: _338  and  _341
REMARK  124  A    between atoms: _341  and  _342
REMARK  125  A    between atoms: _342  and  _343
REMARK  126  A    between atoms: _343  and  _344
REMARK                            x       y       z     vdW  Elec       q    Type
REMARK                         _______ _______ _______ _____ _____    ______ ____
ROOT
ATOM      1  C   CYS A   1      14.843   7.344  24.097  0.00  0.00    +0.239 C 
ATOM      2  N   VAL A   2      14.816   6.032  24.193  0.00  0.00    -0.298 N 
ATOM      3  H   VAL A   2      15.657   5.511  24.514  0.00  0.00    +0.150 HD
ATOM      4  O   CYS A   1      13.835   8.035  24.024  0.00  0.00    -0.274 OA
ENDROOT
BRANCH   1   5
ATOM      5  CA  CYS A   1      16.200   7.939  23.953  0.00  0.00    +0.156 C 
BRANCH   5   6
ATOM      6  N   CYS A   1      17.269   6.945  24.029  0.00  0.00    -0.237 NA
ATOM      7  H   CYS A   1      17.293   6.147  23.363  0.00  0.00    +0.142 HD
ENDBRANCH   5   6
BRANCH   5   8
ATOM      8  CB  CYS A   1      16.122   8.609  22.581  0.00  0.00    +0.095 C 
ATOM      9  SG  CYS A   1      17.629   9.029  21.724  0.00  0.00    -0.080 S 
ENDBRANCH   5   8
ENDBRANCH   1   5
BRANCH   2  10
ATOM     10  CA  VAL A   2      13.557   5.296  23.834  0.00  0.00    +0.137 C 
BRANCH  10  11
ATOM     11  CB  VAL A   2      13.835   3.998  23.062  0.00  0.00    +0.026 C 
ATOM     12  CG2 VAL A   2      12.501   3.241  22.691  0.00  0.00    +0.002 C 
ATOM     13  CG1 VAL A   2      14.618   4.316  21.727  0.00  0.00    +0.002 C 
ENDBRANCH  10  11
BRANCH  10  14
ATOM     14  C   VAL A   2      12.789   4.842  25.106  0.00  0.00    +0.227 C 
ATOM     15  O   VAL A   2      13.309   4.115  25.975  0.00  0.00    -0.286 OA
ENDBRANCH  10  14
ENDBRANCH   2  10
TORSDOF 6
REMARK  Name = ../refined-set-2016/4q9y/4q9y_pocket.pdb
REMARK  126 active torsions:
REMARK  status: ('A' for Active; 'I' for Inactive)
REMARK    1  A    between atoms: _1  and  _3
REMARK    2  A    between atoms: _3  and  _4
REMARK    3  A    between atoms: _3  and  _6
REMARK    4  A    between atoms: _6  and  _7
REMARK    5  A    between atoms: _17  and  _19
REMARK    6  A    between atoms: _19  and  _20
REMARK    7  A    between atoms: _19  and  _22
REMARK    8  A    between atoms: _22  and  _23
REMARK    9  A    between atoms: _28  and  _29
REMARK   10  A    between atoms: _31  and  _33
REMARK   11  A    between atoms: _33  and  _34
REMARK   12  A    between atoms: _33  and  _36
REMARK   13  A    between atoms: _36  and  _37
REMARK   14  A    between atoms: _39  and  _41
REMARK   15  A    between atoms: _41  and  _42
REMARK   16  A    between atoms: _41  and  _44
REMARK   17  A    between atoms: _44  and  _45
REMARK   18  A    between atoms: _50  and  _52
REMARK   19  A    between atoms: _52  and  _53
REMARK   20  A    between atoms: _52  and  _55
REMARK   21  A    between atoms: _55  and  _56
REMARK   22  A    between atoms: _61  and  _63
REMARK   23  A    between atoms: _63  and  _64
REMARK   24  A    between atoms: _63  and  _66
REMARK   25  A    between atoms: _66  and  _67
REMARK   26  A    between atoms: _70  and  _72
REMARK   27  A    between atoms: _72  and  _73
REMARK   28  A    between atoms: _72  and  _75
REMARK   29  A    between atoms: _75  and  _76
REMARK   30  A    between atoms: _76  and  _77
REMARK   31  A    between atoms: _82  and  _84
REMARK   32  A    between atoms: _95  and  _98
REMARK   33  A    between atoms: _98  and  _99
REMARK   34  A    between atoms: _107  and  _108
REMARK   35  A    between atoms: _116  and  _118
REMARK   36  A    between atoms: _118  and  _119
REMARK   37  A    between atoms: _118  and  _121
REMARK   38  A    between atoms: _121  and  _122
REMARK   39  A    between atoms: _122  and  _123
REMARK   40  A    between atoms: _126  and  _128
REMARK   41  A    between atoms: _128  and  _129
REMARK   42  A    between atoms: _128  and  _131
REMARK   43  A    between atoms: _131  and  _132
REMARK   44  A    between atoms: _132  and  _133
REMARK   45  A    between atoms: _136  and  _138
REMARK   46  A    between atoms: _138  and  _139
REMARK   47  A    between atoms: _138  and  _141
REMARK   48  A    between atoms: _141  and  _142
REMARK   49  A    between atoms: _143  and  ZN_353
REMARK   50  A    between atoms: _147  and  _149
REMARK   51  A    between atoms: _149  and  _150
REMARK   52  A    between atoms: _149  and  _152
REMARK   53  A    between atoms: _152  and  _153
REMARK   54  A    between atoms: _156  and  _158
REMARK   55  A    between atoms: _158  and  _159
REMARK   56  A    between atoms: _158  and  _161
REMARK   57  A    between atoms: _164  and  _166
REMARK   58  A    between atoms: _166  and  _167
REMARK   59  A    between atoms: _166  and  _169
REMARK   60  A    between atoms: _169  and  _170
REMARK   61  A    between atoms: _175  and  _177
REMARK   62  A    between atoms: _177  and  _178
REMARK   63  A    between atoms: _177  and  _180
REMARK   64  A    between atoms: _180  and  _181
REMARK   65  A    between atoms: _187  and  _189
REMARK   66  A    between atoms: _189  and  _190
REMARK   67  A    between atoms: _189  and  _192
REMARK   68  A    between atoms: _195  and  _197
REMARK   69  A    between atoms: _197  and  _198
REMARK   70  A    between atoms: _197  and  _200
REMARK   71  A    between atoms: _200  and  _201
REMARK   72  A    between atoms: _204  and  _206
REMARK   73  A    between atoms: _206  and  _207
REMARK   74  A    between atoms: _210  and  _212
REMARK   75  A    between atoms: _212  and  _213
REMARK   76  A    between atoms: _212  and  _215
REMARK   77  A    between atoms: _218  and  _220
REMARK   78  A    between atoms: _220  and  _221
REMARK   79  A    between atoms: _220  and  _223
REMARK   80  A    between atoms: _223  and  _224
REMARK   81  A    between atoms: _227  and  _229
REMARK   82  A    between atoms: _229  and  _230
REMARK   83  A    between atoms: _229  and  _232
REMARK   84  A    between atoms: _232  and  _233
REMARK   85  A    between atoms: _235  and  _237
REMARK   86  A    between atoms: _237  and  _238
REMARK   87  A    between atoms: _237  and  _240
REMARK   88  A    between atoms: _240  and  _241
REMARK   89  A    between atoms: _244  and  _246
REMARK   90  A    between atoms: _246  and  _247
REMARK   91  A    between atoms: _246  and  _249
REMARK   92  A    between atoms: _249  and  _250
REMARK   93  A    between atoms: _253  and  _255
REMARK   94  A    between atoms: _255  and  _256
REMARK   95  A    between atoms: _255  and  _258
REMARK   96  A    between atoms: _258  and  _259
REMARK   97  A    between atoms: _263  and  _264
REMARK   98  A    between atoms: _270  and  _271
REMARK   99  A    between atoms: _276  and  _278
REMARK  100  A    between atoms: _278  and  _279
REMARK  101  A    between atoms: _278  and  _281
REMARK  102  A    between atoms: _281  and  _282
REMARK  103  A    between atoms: _285  and  _287
REMARK  104  A    between atoms: _287  and  _288
REMARK  105  A    between atoms: _287  and  _290
REMARK  106  A    between atoms: _290  and  _291
REMARK  107  A    between atoms: _294  and  _296
REMARK  108  A    between atoms: _296  and  _297
REMARK  109  A    between atoms: _296  and  _299
REMARK  110  A    between atoms: _301  and  _303
REMARK  111  A    between atoms: _303  and  _304
REMARK  112  A    between atoms: _303  and  _306
REMARK  113  A    between atoms: _309  and  _311
REMARK  114  A    between atoms: _311  and  _312
REMARK  115  A    between atoms: _311  and  _314
REMARK  116  A    between atoms: _314  and  _315
REMARK  117  A    between atoms: _325  and  _327
REMARK  118  A    between atoms: _327  and  _328
REMARK  119  A    between atoms: _327  and  _330
REMARK  120  A    between atoms: _330  and  _331
REMARK  121  A    between atoms: _336  and  _338
REMARK  122  A    between atoms: _338  and  _339
REMARK  123  A    between atoms: _338  and  _341
REMARK  124  A    between atoms: _341  and  _342
REMARK  125  A    between atoms: _342  and  _343
REMARK  126  A    between atoms: _343  and  _344
REMARK                            x       y       z     vdW  Elec       q    Type
REMARK                         _______ _______ _______ _____ _____    ______ ____
ROOT
ATOM      1  CG  TRP A   1      12.094  -0.184  24.209  0.00  0.00    -0.002 A 
ATOM      2  CD1 TRP A   1      13.329   0.361  24.435  0.00  0.00    +0.068 A 
ATOM      3  NE1 TRP A   1      14.092   0.348  23.256  0.00  0.00    -0.352 N 
ATOM      4  HE1 TRP A   1      15.057   0.721  23.149  0.00  0.00    +0.166 HD
ATOM      5  CE2 TRP A   1      13.331  -0.252  22.253  0.00  0.00    +0.056 A 
ATOM      6  CZ2 TRP A   1      13.649  -0.529  20.916  0.00  0.00    +0.017 A 
ATOM      7  CH2 TRP A   1      12.674  -1.185  20.139  0.00  0.00    +0.001 A 
ATOM      8  CZ3 TRP A   1      11.390  -1.471  20.688  0.00  0.00    +0.000 A 
ATOM      9  CE3 TRP A   1      11.088  -1.214  21.993  0.00  0.00    +0.001 A 
ATOM     10  CD2 TRP A   1      12.074  -0.603  22.821  0.00  0.00    +0.013 A 
ENDROOT
BRANCH   1  11
ATOM     11  CB  TRP A   1      10.942  -0.292  25.151  0.00  0.00    +0.053 C 
BRANCH  11  12
ATOM     12  CA  TRP A   1       9.958   0.899  24.921  0.00  0.00    +0.137 C 
BRANCH  12  13
ATOM     13  N   TRP A   1      10.437   2.078  25.623  0.00  0.00    -0.239 NA
ATOM     14  H   TRP A   1      11.092   1.971  26.424  0.00  0.00    +0.142 HD
ENDBRANCH  12  13
BRANCH  12  15
ATOM     15  C   TRP A   1       8.607   0.476  25.451  0.00  0.00    +0.224 C 
ATOM     16  O   TRP A   1       8.381   0.422  26.669  0.00  0.00    -0.287 OA
ENDBRANCH  12  15
ENDBRANCH  11  12
ENDBRANCH   1  11
TORSDOF 4
REMARK  Name = ../refined-set-2016/4q9y/4q9y_pocket.pdb
REMARK  126 active torsions:
REMARK  status: ('A' for Active; 'I' for Inactive)
REMARK    1  A    between atoms: _1  and  _3
REMARK    2  A    between atoms: _3  and  _4
REMARK    3  A    between atoms: _3  and  _6
REMARK    4  A    between atoms: _6  and  _7
REMARK    5  A    between atoms: _17  and  _19
REMARK    6  A    between atoms: _19  and  _20
REMARK    7  A    between atoms: _19  and  _22
REMARK    8  A    between atoms: _22  and  _23
REMARK    9  A    between atoms: _28  and  _29
REMARK   10  A    between atoms: _31  and  _33
REMARK   11  A    between atoms: _33  and  _34
REMARK   12  A    between atoms: _33  and  _36
REMARK   13  A    between atoms: _36  and  _37
REMARK   14  A    between atoms: _39  and  _41
REMARK   15  A    between atoms: _41  and  _42
REMARK   16  A    between atoms: _41  and  _44
REMARK   17  A    between atoms: _44  and  _45
REMARK   18  A    between atoms: _50  and  _52
REMARK   19  A    between atoms: _52  and  _53
REMARK   20  A    between atoms: _52  and  _55
REMARK   21  A    between atoms: _55  and  _56
REMARK   22  A    between atoms: _61  and  _63
REMARK   23  A    between atoms: _63  and  _64
REMARK   24  A    between atoms: _63  and  _66
REMARK   25  A    between atoms: _66  and  _67
REMARK   26  A    between atoms: _70  and  _72
REMARK   27  A    between atoms: _72  and  _73
REMARK   28  A    between atoms: _72  and  _75
REMARK   29  A    between atoms: _75  and  _76
REMARK   30  A    between atoms: _76  and  _77
REMARK   31  A    between atoms: _82  and  _84
REMARK   32  A    between atoms: _95  and  _98
REMARK   33  A    between atoms: _98  and  _99
REMARK   34  A    between atoms: _107  and  _108
REMARK   35  A    between atoms: _116  and  _118
REMARK   36  A    between atoms: _118  and  _119
REMARK   37  A    between atoms: _118  and  _121
REMARK   38  A    between atoms: _121  and  _122
REMARK   39  A    between atoms: _122  and  _123
REMARK   40  A    between atoms: _126  and  _128
REMARK   41  A    between atoms: _128  and  _129
REMARK   42  A    between atoms: _128  and  _131
REMARK   43  A    between atoms: _131  and  _132
REMARK   44  A    between atoms: _132  and  _133
REMARK   45  A    between atoms: _136  and  _138
REMARK   46  A    between atoms: _138  and  _139
REMARK   47  A    between atoms: _138  and  _141
REMARK   48  A    between atoms: _141  and  _142
REMARK   49  A    between atoms: _143  and  ZN_353
REMARK   50  A    between atoms: _147  and  _149
REMARK   51  A    between atoms: _149  and  _150
REMARK   52  A    between atoms: _149  and  _152
REMARK   53  A    between atoms: _152  and  _153
REMARK   54  A    between atoms: _156  and  _158
REMARK   55  A    between atoms: _158  and  _159
REMARK   56  A    between atoms: _158  and  _161
REMARK   57  A    between atoms: _164  and  _166
REMARK   58  A    between atoms: _166  and  _167
REMARK   59  A    between atoms: _166  and  _169
REMARK   60  A    between atoms: _169  and  _170
REMARK   61  A    between atoms: _175  and  _177
REMARK   62  A    between atoms: _177  and  _178
REMARK   63  A    between atoms: _177  and  _180
REMARK   64  A    between atoms: _180  and  _181
REMARK   65  A    between atoms: _187  and  _189
REMARK   66  A    between atoms: _189  and  _190
REMARK   67  A    between atoms: _189  and  _192
REMARK   68  A    between atoms: _195  and  _197
REMARK   69  A    between atoms: _197  and  _198
REMARK   70  A    between atoms: _197  and  _200
REMARK   71  A    between atoms: _200  and  _201
REMARK   72  A    between atoms: _204  and  _206
REMARK   73  A    between atoms: _206  and  _207
REMARK   74  A    between atoms: _210  and  _212
REMARK   75  A    between atoms: _212  and  _213
REMARK   76  A    between atoms: _212  and  _215
REMARK   77  A    between atoms: _218  and  _220
REMARK   78  A    between atoms: _220  and  _221
REMARK   79  A    between atoms: _220  and  _223
REMARK   80  A    between atoms: _223  and  _224
REMARK   81  A    between atoms: _227  and  _229
REMARK   82  A    between atoms: _229  and  _230
REMARK   83  A    between atoms: _229  and  _232
REMARK   84  A    between atoms: _232  and  _233
REMARK   85  A    between atoms: _235  and  _237
REMARK   86  A    between atoms: _237  and  _238
REMARK   87  A    between atoms: _237  and  _240
REMARK   88  A    between atoms: _240  and  _241
REMARK   89  A    between atoms: _244  and  _246
REMARK   90  A    between atoms: _246  and  _247
REMARK   91  A    between atoms: _246  and  _249
REMARK   92  A    between atoms: _249  and  _250
REMARK   93  A    between atoms: _253  and  _255
REMARK   94  A    between atoms: _255  and  _256
REMARK   95  A    between atoms: _255  and  _258
REMARK   96  A    between atoms: _258  and  _259
REMARK   97  A    between atoms: _263  and  _264
REMARK   98  A    between atoms: _270  and  _271
REMARK   99  A    between atoms: _276  and  _278
REMARK  100  A    between atoms: _278  and  _279
REMARK  101  A    between atoms: _278  and  _281
REMARK  102  A    between atoms: _281  and  _282
REMARK  103  A    between atoms: _285  and  _287
REMARK  104  A    between atoms: _287  and  _288
REMARK  105  A    between atoms: _287  and  _290
REMARK  106  A    between atoms: _290  and  _291
REMARK  107  A    between atoms: _294  and  _296
REMARK  108  A    between atoms: _296  and  _297
REMARK  109  A    between atoms: _296  and  _299
REMARK  110  A    between atoms: _301  and  _303
REMARK  111  A    between atoms: _303  and  _304
REMARK  112  A    between atoms: _303  and  _306
REMARK  113  A    between atoms: _309  and  _311
REMARK  114  A    between atoms: _311  and  _312
REMARK  115  A    between atoms: _311  and  _314
REMARK  116  A    between atoms: _314  and  _315
REMARK  117  A    between atoms: _325  and  _327
REMARK  118  A    between atoms: _327  and  _328
REMARK  119  A    between atoms: _327  and  _330
REMARK  120  A    between atoms: _330  and  _331
REMARK  121  A    between atoms: _336  and  _338
REMARK  122  A    between atoms: _338  and  _339
REMARK  123  A    between atoms: _338  and  _341
REMARK  124  A    between atoms: _341  and  _342
REMARK  125  A    between atoms: _342  and  _343
REMARK  126  A    between atoms: _343  and  _344
REMARK                            x       y       z     vdW  Elec       q    Type
REMARK                         _______ _______ _______ _____ _____    ______ ____
ROOT
ATOM      1  CB  ASN A   1      19.021  -7.518  10.444  0.00  0.00    +0.110 C 
ENDROOT
BRANCH   1   2
ATOM      2  CG  ASN A   1      17.535  -7.709  10.127  0.00  0.00    +0.221 C 
ATOM      3  OD1 ASN A   1      16.889  -8.541  10.707  0.00  0.00    -0.275 OA
ATOM      4  ND2 ASN A   1      16.991  -6.836   9.262  0.00  0.00    -0.329 N 
ATOM      5 HD21 ASN A   1      15.969  -6.862   9.070  0.00  0.00    +0.145 HD
ATOM      6 HD22 ASN A   1      17.592  -6.134   8.784  0.00  0.00    +0.145 HD
ENDBRANCH   1   2
BRANCH   1   7
ATOM      7  CA  ASN A   1      19.540  -8.376  11.590  0.00  0.00    +0.142 C 
BRANCH   7   8
ATOM      8  N   ASN A   1      19.196  -9.814  11.322  0.00  0.00    -0.239 NA
ATOM      9  H   ASN A   1      18.275 -10.073  10.914  0.00  0.00    +0.142 HD
ENDBRANCH   7   8
BRANCH   7  10
ATOM     10  C   ASN A   1      18.965  -7.956  12.955  0.00  0.00    +0.225 C 
ATOM     11  O   ASN A   1      18.269  -6.919  13.061  0.00  0.00    -0.287 OA
ENDBRANCH   7  10
ENDBRANCH   1   7
TORSDOF 4
REMARK  Name = ../refined-set-2016/4q9y/4q9y_pocket.pdb
REMARK  126 active torsions:
REMARK  status: ('A' for Active; 'I' for Inactive)
REMARK    1  A    between atoms: _1  and  _3
REMARK    2  A    between atoms: _3  and  _4
REMARK    3  A    between atoms: _3  and  _6
REMARK    4  A    between atoms: _6  and  _7
REMARK    5  A    between atoms: _17  and  _19
REMARK    6  A    between atoms: _19  and  _20
REMARK    7  A    between atoms: _19  and  _22
REMARK    8  A    between atoms: _22  and  _23
REMARK    9  A    between atoms: _28  and  _29
REMARK   10  A    between atoms: _31  and  _33
REMARK   11  A    between atoms: _33  and  _34
REMARK   12  A    between atoms: _33  and  _36
REMARK   13  A    between atoms: _36  and  _37
REMARK   14  A    between atoms: _39  and  _41
REMARK   15  A    between atoms: _41  and  _42
REMARK   16  A    between atoms: _41  and  _44
REMARK   17  A    between atoms: _44  and  _45
REMARK   18  A    between atoms: _50  and  _52
REMARK   19  A    between atoms: _52  and  _53
REMARK   20  A    between atoms: _52  and  _55
REMARK   21  A    between atoms: _55  and  _56
REMARK   22  A    between atoms: _61  and  _63
REMARK   23  A    between atoms: _63  and  _64
REMARK   24  A    between atoms: _63  and  _66
REMARK   25  A    between atoms: _66  and  _67
REMARK   26  A    between atoms: _70  and  _72
REMARK   27  A    between atoms: _72  and  _73
REMARK   28  A    between atoms: _72  and  _75
REMARK   29  A    between atoms: _75  and  _76
REMARK   30  A    between atoms: _76  and  _77
REMARK   31  A    between atoms: _82  and  _84
REMARK   32  A    between atoms: _95  and  _98
REMARK   33  A    between atoms: _98  and  _99
REMARK   34  A    between atoms: _107  and  _108
REMARK   35  A    between atoms: _116  and  _118
REMARK   36  A    between atoms: _118  and  _119
REMARK   37  A    between atoms: _118  and  _121
REMARK   38  A    between atoms: _121  and  _122
REMARK   39  A    between atoms: _122  and  _123
REMARK   40  A    between atoms: _126  and  _128
REMARK   41  A    between atoms: _128  and  _129
REMARK   42  A    between atoms: _128  and  _131
REMARK   43  A    between atoms: _131  and  _132
REMARK   44  A    between atoms: _132  and  _133
REMARK   45  A    between atoms: _136  and  _138
REMARK   46  A    between atoms: _138  and  _139
REMARK   47  A    between atoms: _138  and  _141
REMARK   48  A    between atoms: _141  and  _142
REMARK   49  A    between atoms: _143  and  ZN_353
REMARK   50  A    between atoms: _147  and  _149
REMARK   51  A    between atoms: _149  and  _150
REMARK   52  A    between atoms: _149  and  _152
REMARK   53  A    between atoms: _152  and  _153
REMARK   54  A    between atoms: _156  and  _158
REMARK   55  A    between atoms: _158  and  _159
REMARK   56  A    between atoms: _158  and  _161
REMARK   57  A    between atoms: _164  and  _166
REMARK   58  A    between atoms: _166  and  _167
REMARK   59  A    between atoms: _166  and  _169
REMARK   60  A    between atoms: _169  and  _170
REMARK   61  A    between atoms: _175  and  _177
REMARK   62  A    between atoms: _177  and  _178
REMARK   63  A    between atoms: _177  and  _180
REMARK   64  A    between atoms: _180  and  _181
REMARK   65  A    between atoms: _187  and  _189
REMARK   66  A    between atoms: _189  and  _190
REMARK   67  A    between atoms: _189  and  _192
REMARK   68  A    between atoms: _195  and  _197
REMARK   69  A    between atoms: _197  and  _198
REMARK   70  A    between atoms: _197  and  _200
REMARK   71  A    between atoms: _200  and  _201
REMARK   72  A    between atoms: _204  and  _206
REMARK   73  A    between atoms: _206  and  _207
REMARK   74  A    between atoms: _210  and  _212
REMARK   75  A    between atoms: _212  and  _213
REMARK   76  A    between atoms: _212  and  _215
REMARK   77  A    between atoms: _218  and  _220
REMARK   78  A    between atoms: _220  and  _221
REMARK   79  A    between atoms: _220  and  _223
REMARK   80  A    between atoms: _223  and  _224
REMARK   81  A    between atoms: _227  and  _229
REMARK   82  A    between atoms: _229  and  _230
REMARK   83  A    between atoms: _229  and  _232
REMARK   84  A    between atoms: _232  and  _233
REMARK   85  A    between atoms: _235  and  _237
REMARK   86  A    between atoms: _237  and  _238
REMARK   87  A    between atoms: _237  and  _240
REMARK   88  A    between atoms: _240  and  _241
REMARK   89  A    between atoms: _244  and  _246
REMARK   90  A    between atoms: _246  and  _247
REMARK   91  A    between atoms: _246  and  _249
REMARK   92  A    between atoms: _249  and  _250
REMARK   93  A    between atoms: _253  and  _255
REMARK   94  A    between atoms: _255  and  _256
REMARK   95  A    between atoms: _255  and  _258
REMARK   96  A    between atoms: _258  and  _259
REMARK   97  A    between atoms: _263  and  _264
REMARK   98  A    between atoms: _270  and  _271
REMARK   99  A    between atoms: _276  and  _278
REMARK  100  A    between atoms: _278  and  _279
REMARK  101  A    between atoms: _278  and  _281
REMARK  102  A    between atoms: _281  and  _282
REMARK  103  A    between atoms: _285  and  _287
REMARK  104  A    between atoms: _287  and  _288
REMARK  105  A    between atoms: _287  and  _290
REMARK  106  A    between atoms: _290  and  _291
REMARK  107  A    between atoms: _294  and  _296
REMARK  108  A    between atoms: _296  and  _297
REMARK  109  A    between atoms: _296  and  _299
REMARK  110  A    between atoms: _301  and  _303
REMARK  111  A    between atoms: _303  and  _304
REMARK  112  A    between atoms: _303  and  _306
REMARK  113  A    between atoms: _309  and  _311
REMARK  114  A    between atoms: _311  and  _312
REMARK  115  A    between atoms: _311  and  _314
REMARK  116  A    between atoms: _314  and  _315
REMARK  117  A    between atoms: _325  and  _327
REMARK  118  A    between atoms: _327  and  _328
REMARK  119  A    between atoms: _327  and  _330
REMARK  120  A    between atoms: _330  and  _331
REMARK  121  A    between atoms: _336  and  _338
REMARK  122  A    between atoms: _338  and  _339
REMARK  123  A    between atoms: _338  and  _341
REMARK  124  A    between atoms: _341  and  _342
REMARK  125  A    between atoms: _342  and  _343
REMARK  126  A    between atoms: _343  and  _344
REMARK                            x       y       z     vdW  Elec       q    Type
REMARK                         _______ _______ _______ _____ _____    ______ ____
ROOT
ATOM      1  NE  ARG A   1      23.286  -4.109  21.135  0.00  0.00    +0.330 N 
ATOM      2  CZ  ARG A   1      23.465  -3.091  21.976  0.00  0.00    +0.000 C 
ATOM      3  NH2 ARG A   1      24.692  -2.832  22.403  0.00  0.00    +0.330 N 
ATOM      4 HH21 ARG A   1      24.858  -2.043  23.060  0.00  0.00    +0.000 HD
ATOM      5 HH22 ARG A   1      25.489  -3.418  22.081  0.00  0.00    +0.000 HD
ATOM      6  NH1 ARG A   1      22.463  -2.267  22.315  0.00  0.00    +0.330 N 
ATOM      7 HH11 ARG A   1      22.636  -1.482  22.974  0.00  0.00    +0.000 HD
ATOM      8 HH12 ARG A   1      21.513  -2.413  21.919  0.00  0.00    +0.000 HD
ATOM      9  HE  ARG A   1      24.096  -4.730  20.933  0.00  0.00    +0.000 HD
ENDROOT
BRANCH   1  10
ATOM     10  CD  ARG A   1      21.988  -4.404  20.469  0.00  0.00    +0.000 C 
BRANCH  10  11
ATOM     11  CG  ARG A   1      22.105  -5.801  19.867  0.00  0.00    +0.000 C 
BRANCH  11  12
ATOM     12  CB  ARG A   1      21.018  -6.068  18.799  0.00  0.00    +0.000 C 
BRANCH  12  13
ATOM     13  CA  ARG A   1      20.911  -7.522  18.341  0.00  0.00    +0.000 C 
BRANCH  13  14
ATOM     14  N   ARG A   1      19.958  -7.570  17.224  0.00  0.00    +0.000 NA
ATOM     15  H   ARG A   1      19.196  -6.864  17.180  0.00  0.00    +0.000 HD
ENDBRANCH  13  14
BRANCH  13  16
ATOM     16  C   ARG A   1      20.429  -8.382  19.486  0.00  0.00    +0.000 C 
ATOM     17  O   ARG A   1      19.204  -8.399  19.782  0.00  0.00    +0.000 OA
ENDBRANCH  13  16
ENDBRANCH  12  13
ENDBRANCH  11  12
ENDBRANCH  10  11
ENDBRANCH   1  10
TORSDOF 6
REMARK  Name = ../refined-set-2016/4q9y/4q9y_pocket.pdb
REMARK  126 active torsions:
REMARK  status: ('A' for Active; 'I' for Inactive)
REMARK    1  A    between atoms: _1  and  _3
REMARK    2  A    between atoms: _3  and  _4
REMARK    3  A    between atoms: _3  and  _6
REMARK    4  A    between atoms: _6  and  _7
REMARK    5  A    between atoms: _17  and  _19
REMARK    6  A    between atoms: _19  and  _20
REMARK    7  A    between atoms: _19  and  _22
REMARK    8  A    between atoms: _22  and  _23
REMARK    9  A    between atoms: _28  and  _29
REMARK   10  A    between atoms: _31  and  _33
REMARK   11  A    between atoms: _33  and  _34
REMARK   12  A    between atoms: _33  and  _36
REMARK   13  A    between atoms: _36  and  _37
REMARK   14  A    between atoms: _39  and  _41
REMARK   15  A    between atoms: _41  and  _42
REMARK   16  A    between atoms: _41  and  _44
REMARK   17  A    between atoms: _44  and  _45
REMARK   18  A    between atoms: _50  and  _52
REMARK   19  A    between atoms: _52  and  _53
REMARK   20  A    between atoms: _52  and  _55
REMARK   21  A    between atoms: _55  and  _56
REMARK   22  A    between atoms: _61  and  _63
REMARK   23  A    between atoms: _63  and  _64
REMARK   24  A    between atoms: _63  and  _66
REMARK   25  A    between atoms: _66  and  _67
REMARK   26  A    between atoms: _70  and  _72
REMARK   27  A    between atoms: _72  and  _73
REMARK   28  A    between atoms: _72  and  _75
REMARK   29  A    between atoms: _75  and  _76
REMARK   30  A    between atoms: _76  and  _77
REMARK   31  A    between atoms: _82  and  _84
REMARK   32  A    between atoms: _95  and  _98
REMARK   33  A    between atoms: _98  and  _99
REMARK   34  A    between atoms: _107  and  _108
REMARK   35  A    between atoms: _116  and  _118
REMARK   36  A    between atoms: _118  and  _119
REMARK   37  A    between atoms: _118  and  _121
REMARK   38  A    between atoms: _121  and  _122
REMARK   39  A    between atoms: _122  and  _123
REMARK   40  A    between atoms: _126  and  _128
REMARK   41  A    between atoms: _128  and  _129
REMARK   42  A    between atoms: _128  and  _131
REMARK   43  A    between atoms: _131  and  _132
REMARK   44  A    between atoms: _132  and  _133
REMARK   45  A    between atoms: _136  and  _138
REMARK   46  A    between atoms: _138  and  _139
REMARK   47  A    between atoms: _138  and  _141
REMARK   48  A    between atoms: _141  and  _142
REMARK   49  A    between atoms: _143  and  ZN_353
REMARK   50  A    between atoms: _147  and  _149
REMARK   51  A    between atoms: _149  and  _150
REMARK   52  A    between atoms: _149  and  _152
REMARK   53  A    between atoms: _152  and  _153
REMARK   54  A    between atoms: _156  and  _158
REMARK   55  A    between atoms: _158  and  _159
REMARK   56  A    between atoms: _158  and  _161
REMARK   57  A    between atoms: _164  and  _166
REMARK   58  A    between atoms: _166  and  _167
REMARK   59  A    between atoms: _166  and  _169
REMARK   60  A    between atoms: _169  and  _170
REMARK   61  A    between atoms: _175  and  _177
REMARK   62  A    between atoms: _177  and  _178
REMARK   63  A    between atoms: _177  and  _180
REMARK   64  A    between atoms: _180  and  _181
REMARK   65  A    between atoms: _187  and  _189
REMARK   66  A    between atoms: _189  and  _190
REMARK   67  A    between atoms: _189  and  _192
REMARK   68  A    between atoms: _195  and  _197
REMARK   69  A    between atoms: _197  and  _198
REMARK   70  A    between atoms: _197  and  _200
REMARK   71  A    between atoms: _200  and  _201
REMARK   72  A    between atoms: _204  and  _206
REMARK   73  A    between atoms: _206  and  _207
REMARK   74  A    between atoms: _210  and  _212
REMARK   75  A    between atoms: _212  and  _213
REMARK   76  A    between atoms: _212  and  _215
REMARK   77  A    between atoms: _218  and  _220
REMARK   78  A    between atoms: _220  and  _221
REMARK   79  A    between atoms: _220  and  _223
REMARK   80  A    between atoms: _223  and  _224
REMARK   81  A    between atoms: _227  and  _229
REMARK   82  A    between atoms: _229  and  _230
REMARK   83  A    between atoms: _229  and  _232
REMARK   84  A    between atoms: _232  and  _233
REMARK   85  A    between atoms: _235  and  _237
REMARK   86  A    between atoms: _237  and  _238
REMARK   87  A    between atoms: _237  and  _240
REMARK   88  A    between atoms: _240  and  _241
REMARK   89  A    between atoms: _244  and  _246
REMARK   90  A    between atoms: _246  and  _247
REMARK   91  A    between atoms: _246  and  _249
REMARK   92  A    between atoms: _249  and  _250
REMARK   93  A    between atoms: _253  and  _255
REMARK   94  A    between atoms: _255  and  _256
REMARK   95  A    between atoms: _255  and  _258
REMARK   96  A    between atoms: _258  and  _259
REMARK   97  A    between atoms: _263  and  _264
REMARK   98  A    between atoms: _270  and  _271
REMARK   99  A    between atoms: _276  and  _278
REMARK  100  A    between atoms: _278  and  _279
REMARK  101  A    between atoms: _278  and  _281
REMARK  102  A    between atoms: _281  and  _282
REMARK  103  A    between atoms: _285  and  _287
REMARK  104  A    between atoms: _287  and  _288
REMARK  105  A    between atoms: _287  and  _290
REMARK  106  A    between atoms: _290  and  _291
REMARK  107  A    between atoms: _294  and  _296
REMARK  108  A    between atoms: _296  and  _297
REMARK  109  A    between atoms: _296  and  _299
REMARK  110  A    between atoms: _301  and  _303
REMARK  111  A    between atoms: _303  and  _304
REMARK  112  A    between atoms: _303  and  _306
REMARK  113  A    between atoms: _309  and  _311
REMARK  114  A    between atoms: _311  and  _312
REMARK  115  A    between atoms: _311  and  _314
REMARK  116  A    between atoms: _314  and  _315
REMARK  117  A    between atoms: _325  and  _327
REMARK  118  A    between atoms: _327  and  _328
REMARK  119  A    between atoms: _327  and  _330
REMARK  120  A    between atoms: _330  and  _331
REMARK  121  A    between atoms: _336  and  _338
REMARK  122  A    between atoms: _338  and  _339
REMARK  123  A    between atoms: _338  and  _341
REMARK  124  A    between atoms: _341  and  _342
REMARK  125  A    between atoms: _342  and  _343
REMARK  126  A    between atoms: _343  and  _344
REMARK                            x       y       z     vdW  Elec       q    Type
REMARK                         _______ _______ _______ _____ _____    ______ ____
ROOT
ATOM      1  O   HOH     1      19.752  -4.452  15.736  0.00  0.00    +0.000 OA
ENDROOT
TORSDOF 0
REMARK  Name = ../refined-set-2016/4q9y/4q9y_pocket.pdb
REMARK  126 active torsions:
REMARK  status: ('A' for Active; 'I' for Inactive)
REMARK    1  A    between atoms: _1  and  _3
REMARK    2  A    between atoms: _3  and  _4
REMARK    3  A    between atoms: _3  and  _6
REMARK    4  A    between atoms: _6  and  _7
REMARK    5  A    between atoms: _17  and  _19
REMARK    6  A    between atoms: _19  and  _20
REMARK    7  A    between atoms: _19  and  _22
REMARK    8  A    between atoms: _22  and  _23
REMARK    9  A    between atoms: _28  and  _29
REMARK   10  A    between atoms: _31  and  _33
REMARK   11  A    between atoms: _33  and  _34
REMARK   12  A    between atoms: _33  and  _36
REMARK   13  A    between atoms: _36  and  _37
REMARK   14  A    between atoms: _39  and  _41
REMARK   15  A    between atoms: _41  and  _42
REMARK   16  A    between atoms: _41  and  _44
REMARK   17  A    between atoms: _44  and  _45
REMARK   18  A    between atoms: _50  and  _52
REMARK   19  A    between atoms: _52  and  _53
REMARK   20  A    between atoms: _52  and  _55
REMARK   21  A    between atoms: _55  and  _56
REMARK   22  A    between atoms: _61  and  _63
REMARK   23  A    between atoms: _63  and  _64
REMARK   24  A    between atoms: _63  and  _66
REMARK   25  A    between atoms: _66  and  _67
REMARK   26  A    between atoms: _70  and  _72
REMARK   27  A    between atoms: _72  and  _73
REMARK   28  A    between atoms: _72  and  _75
REMARK   29  A    between atoms: _75  and  _76
REMARK   30  A    between atoms: _76  and  _77
REMARK   31  A    between atoms: _82  and  _84
REMARK   32  A    between atoms: _95  and  _98
REMARK   33  A    between atoms: _98  and  _99
REMARK   34  A    between atoms: _107  and  _108
REMARK   35  A    between atoms: _116  and  _118
REMARK   36  A    between atoms: _118  and  _119
REMARK   37  A    between atoms: _118  and  _121
REMARK   38  A    between atoms: _121  and  _122
REMARK   39  A    between atoms: _122  and  _123
REMARK   40  A    between atoms: _126  and  _128
REMARK   41  A    between atoms: _128  and  _129
REMARK   42  A    between atoms: _128  and  _131
REMARK   43  A    between atoms: _131  and  _132
REMARK   44  A    between atoms: _132  and  _133
REMARK   45  A    between atoms: _136  and  _138
REMARK   46  A    between atoms: _138  and  _139
REMARK   47  A    between atoms: _138  and  _141
REMARK   48  A    between atoms: _141  and  _142
REMARK   49  A    between atoms: _143  and  ZN_353
REMARK   50  A    between atoms: _147  and  _149
REMARK   51  A    between atoms: _149  and  _150
REMARK   52  A    between atoms: _149  and  _152
REMARK   53  A    between atoms: _152  and  _153
REMARK   54  A    between atoms: _156  and  _158
REMARK   55  A    between atoms: _158  and  _159
REMARK   56  A    between atoms: _158  and  _161
REMARK   57  A    between atoms: _164  and  _166
REMARK   58  A    between atoms: _166  and  _167
REMARK   59  A    between atoms: _166  and  _169
REMARK   60  A    between atoms: _169  and  _170
REMARK   61  A    between atoms: _175  and  _177
REMARK   62  A    between atoms: _177  and  _178
REMARK   63  A    between atoms: _177  and  _180
REMARK   64  A    between atoms: _180  and  _181
REMARK   65  A    between atoms: _187  and  _189
REMARK   66  A    between atoms: _189  and  _190
REMARK   67  A    between atoms: _189  and  _192
REMARK   68  A    between atoms: _195  and  _197
REMARK   69  A    between atoms: _197  and  _198
REMARK   70  A    between atoms: _197  and  _200
REMARK   71  A    between atoms: _200  and  _201
REMARK   72  A    between atoms: _204  and  _206
REMARK   73  A    between atoms: _206  and  _207
REMARK   74  A    between atoms: _210  and  _212
REMARK   75  A    between atoms: _212  and  _213
REMARK   76  A    between atoms: _212  and  _215
REMARK   77  A    between atoms: _218  and  _220
REMARK   78  A    between atoms: _220  and  _221
REMARK   79  A    between atoms: _220  and  _223
REMARK   80  A    between atoms: _223  and  _224
REMARK   81  A    between atoms: _227  and  _229
REMARK   82  A    between atoms: _229  and  _230
REMARK   83  A    between atoms: _229  and  _232
REMARK   84  A    between atoms: _232  and  _233
REMARK   85  A    between atoms: _235  and  _237
REMARK   86  A    between atoms: _237  and  _238
REMARK   87  A    between atoms: _237  and  _240
REMARK   88  A    between atoms: _240  and  _241
REMARK   89  A    between atoms: _244  and  _246
REMARK   90  A    between atoms: _246  and  _247
REMARK   91  A    between atoms: _246  and  _249
REMARK   92  A    between atoms: _249  and  _250
REMARK   93  A    between atoms: _253  and  _255
REMARK   94  A    between atoms: _255  and  _256
REMARK   95  A    between atoms: _255  and  _258
REMARK   96  A    between atoms: _258  and  _259
REMARK   97  A    between atoms: _263  and  _264
REMARK   98  A    between atoms: _270  and  _271
REMARK   99  A    between atoms: _276  and  _278
REMARK  100  A    between atoms: _278  and  _279
REMARK  101  A    between atoms: _278  and  _281
REMARK  102  A    between atoms: _281  and  _282
REMARK  103  A    between atoms: _285  and  _287
REMARK  104  A    between atoms: _287  and  _288
REMARK  105  A    between atoms: _287  and  _290
REMARK  106  A    between atoms: _290  and  _291
REMARK  107  A    between atoms: _294  and  _296
REMARK  108  A    between atoms: _296  and  _297
REMARK  109  A    between atoms: _296  and  _299
REMARK  110  A    between atoms: _301  and  _303
REMARK  111  A    between atoms: _303  and  _304
REMARK  112  A    between atoms: _303  and  _306
REMARK  113  A    between atoms: _309  and  _311
REMARK  114  A    between atoms: _311  and  _312
REMARK  115  A    between atoms: _311  and  _314
REMARK  116  A    between atoms: _314  and  _315
REMARK  117  A    between atoms: _325  and  _327
REMARK  118  A    between atoms: _327  and  _328
REMARK  119  A    between atoms: _327  and  _330
REMARK  120  A    between atoms: _330  and  _331
REMARK  121  A    between atoms: _336  and  _338
REMARK  122  A    between atoms: _338  and  _339
REMARK  123  A    between atoms: _338  and  _341
REMARK  124  A    between atoms: _341  and  _342
REMARK  125  A    between atoms: _342  and  _343
REMARK  126  A    between atoms: _343  and  _344
REMARK                            x       y       z     vdW  Elec       q    Type
REMARK                         _______ _______ _______ _____ _____    ______ ____
ROOT
ATOM      1  O   HOH     1      18.714  -3.322  11.332  0.00  0.00    +0.000 OA
ENDROOT
TORSDOF 0
REMARK  Name = ../refined-set-2016/4q9y/4q9y_pocket.pdb
REMARK  126 active torsions:
REMARK  status: ('A' for Active; 'I' for Inactive)
REMARK    1  A    between atoms: _1  and  _3
REMARK    2  A    between atoms: _3  and  _4
REMARK    3  A    between atoms: _3  and  _6
REMARK    4  A    between atoms: _6  and  _7
REMARK    5  A    between atoms: _17  and  _19
REMARK    6  A    between atoms: _19  and  _20
REMARK    7  A    between atoms: _19  and  _22
REMARK    8  A    between atoms: _22  and  _23
REMARK    9  A    between atoms: _28  and  _29
REMARK   10  A    between atoms: _31  and  _33
REMARK   11  A    between atoms: _33  and  _34
REMARK   12  A    between atoms: _33  and  _36
REMARK   13  A    between atoms: _36  and  _37
REMARK   14  A    between atoms: _39  and  _41
REMARK   15  A    between atoms: _41  and  _42
REMARK   16  A    between atoms: _41  and  _44
REMARK   17  A    between atoms: _44  and  _45
REMARK   18  A    between atoms: _50  and  _52
REMARK   19  A    between atoms: _52  and  _53
REMARK   20  A    between atoms: _52  and  _55
REMARK   21  A    between atoms: _55  and  _56
REMARK   22  A    between atoms: _61  and  _63
REMARK   23  A    between atoms: _63  and  _64
REMARK   24  A    between atoms: _63  and  _66
REMARK   25  A    between atoms: _66  and  _67
REMARK   26  A    between atoms: _70  and  _72
REMARK   27  A    between atoms: _72  and  _73
REMARK   28  A    between atoms: _72  and  _75
REMARK   29  A    between atoms: _75  and  _76
REMARK   30  A    between atoms: _76  and  _77
REMARK   31  A    between atoms: _82  and  _84
REMARK   32  A    between atoms: _95  and  _98
REMARK   33  A    between atoms: _98  and  _99
REMARK   34  A    between atoms: _107  and  _108
REMARK   35  A    between atoms: _116  and  _118
REMARK   36  A    between atoms: _118  and  _119
REMARK   37  A    between atoms: _118  and  _121
REMARK   38  A    between atoms: _121  and  _122
REMARK   39  A    between atoms: _122  and  _123
REMARK   40  A    between atoms: _126  and  _128
REMARK   41  A    between atoms: _128  and  _129
REMARK   42  A    between atoms: _128  and  _131
REMARK   43  A    between atoms: _131  and  _132
REMARK   44  A    between atoms: _132  and  _133
REMARK   45  A    between atoms: _136  and  _138
REMARK   46  A    between atoms: _138  and  _139
REMARK   47  A    between atoms: _138  and  _141
REMARK   48  A    between atoms: _141  and  _142
REMARK   49  A    between atoms: _143  and  ZN_353
REMARK   50  A    between atoms: _147  and  _149
REMARK   51  A    between atoms: _149  and  _150
REMARK   52  A    between atoms: _149  and  _152
REMARK   53  A    between atoms: _152  and  _153
REMARK   54  A    between atoms: _156  and  _158
REMARK   55  A    between atoms: _158  and  _159
REMARK   56  A    between atoms: _158  and  _161
REMARK   57  A    between atoms: _164  and  _166
REMARK   58  A    between atoms: _166  and  _167
REMARK   59  A    between atoms: _166  and  _169
REMARK   60  A    between atoms: _169  and  _170
REMARK   61  A    between atoms: _175  and  _177
REMARK   62  A    between atoms: _177  and  _178
REMARK   63  A    between atoms: _177  and  _180
REMARK   64  A    between atoms: _180  and  _181
REMARK   65  A    between atoms: _187  and  _189
REMARK   66  A    between atoms: _189  and  _190
REMARK   67  A    between atoms: _189  and  _192
REMARK   68  A    between atoms: _195  and  _197
REMARK   69  A    between atoms: _197  and  _198
REMARK   70  A    between atoms: _197  and  _200
REMARK   71  A    between atoms: _200  and  _201
REMARK   72  A    between atoms: _204  and  _206
REMARK   73  A    between atoms: _206  and  _207
REMARK   74  A    between atoms: _210  and  _212
REMARK   75  A    between atoms: _212  and  _213
REMARK   76  A    between atoms: _212  and  _215
REMARK   77  A    between atoms: _218  and  _220
REMARK   78  A    between atoms: _220  and  _221
REMARK   79  A    between atoms: _220  and  _223
REMARK   80  A    between atoms: _223  and  _224
REMARK   81  A    between atoms: _227  and  _229
REMARK   82  A    between atoms: _229  and  _230
REMARK   83  A    between atoms: _229  and  _232
REMARK   84  A    between atoms: _232  and  _233
REMARK   85  A    between atoms: _235  and  _237
REMARK   86  A    between atoms: _237  and  _238
REMARK   87  A    between atoms: _237  and  _240
REMARK   88  A    between atoms: _240  and  _241
REMARK   89  A    between atoms: _244  and  _246
REMARK   90  A    between atoms: _246  and  _247
REMARK   91  A    between atoms: _246  and  _249
REMARK   92  A    between atoms: _249  and  _250
REMARK   93  A    between atoms: _253  and  _255
REMARK   94  A    between atoms: _255  and  _256
REMARK   95  A    between atoms: _255  and  _258
REMARK   96  A    between atoms: _258  and  _259
REMARK   97  A    between atoms: _263  and  _264
REMARK   98  A    between atoms: _270  and  _271
REMARK   99  A    between atoms: _276  and  _278
REMARK  100  A    between atoms: _278  and  _279
REMARK  101  A    between atoms: _278  and  _281
REMARK  102  A    between atoms: _281  and  _282
REMARK  103  A    between atoms: _285  and  _287
REMARK  104  A    between atoms: _287  and  _288
REMARK  105  A    between atoms: _287  and  _290
REMARK  106  A    between atoms: _290  and  _291
REMARK  107  A    between atoms: _294  and  _296
REMARK  108  A    between atoms: _296  and  _297
REMARK  109  A    between atoms: _296  and  _299
REMARK  110  A    between atoms: _301  and  _303
REMARK  111  A    between atoms: _303  and  _304
REMARK  112  A    between atoms: _303  and  _306
REMARK  113  A    between atoms: _309  and  _311
REMARK  114  A    between atoms: _311  and  _312
REMARK  115  A    between atoms: _311  and  _314
REMARK  116  A    between atoms: _314  and  _315
REMARK  117  A    between atoms: _325  and  _327
REMARK  118  A    between atoms: _327  and  _328
REMARK  119  A    between atoms: _327  and  _330
REMARK  120  A    between atoms: _330  and  _331
REMARK  121  A    between atoms: _336  and  _338
REMARK  122  A    between atoms: _338  and  _339
REMARK  123  A    between atoms: _338  and  _341
REMARK  124  A    between atoms: _341  and  _342
REMARK  125  A    between atoms: _342  and  _343
REMARK  126  A    between atoms: _343  and  _344
REMARK                            x       y       z     vdW  Elec       q    Type
REMARK                         _______ _______ _______ _____ _____    ______ ____
ROOT
ATOM      1  O   HOH     1      14.185   5.834   6.368  0.00  0.00    +0.000 OA
ENDROOT
TORSDOF 0
REMARK  Name = ../refined-set-2016/4q9y/4q9y_pocket.pdb
REMARK  126 active torsions:
REMARK  status: ('A' for Active; 'I' for Inactive)
REMARK    1  A    between atoms: _1  and  _3
REMARK    2  A    between atoms: _3  and  _4
REMARK    3  A    between atoms: _3  and  _6
REMARK    4  A    between atoms: _6  and  _7
REMARK    5  A    between atoms: _17  and  _19
REMARK    6  A    between atoms: _19  and  _20
REMARK    7  A    between atoms: _19  and  _22
REMARK    8  A    between atoms: _22  and  _23
REMARK    9  A    between atoms: _28  and  _29
REMARK   10  A    between atoms: _31  and  _33
REMARK   11  A    between atoms: _33  and  _34
REMARK   12  A    between atoms: _33  and  _36
REMARK   13  A    between atoms: _36  and  _37
REMARK   14  A    between atoms: _39  and  _41
REMARK   15  A    between atoms: _41  and  _42
REMARK   16  A    between atoms: _41  and  _44
REMARK   17  A    between atoms: _44  and  _45
REMARK   18  A    between atoms: _50  and  _52
REMARK   19  A    between atoms: _52  and  _53
REMARK   20  A    between atoms: _52  and  _55
REMARK   21  A    between atoms: _55  and  _56
REMARK   22  A    between atoms: _61  and  _63
REMARK   23  A    between atoms: _63  and  _64
REMARK   24  A    between atoms: _63  and  _66
REMARK   25  A    between atoms: _66  and  _67
REMARK   26  A    between atoms: _70  and  _72
REMARK   27  A    between atoms: _72  and  _73
REMARK   28  A    between atoms: _72  and  _75
REMARK   29  A    between atoms: _75  and  _76
REMARK   30  A    between atoms: _76  and  _77
REMARK   31  A    between atoms: _82  and  _84
REMARK   32  A    between atoms: _95  and  _98
REMARK   33  A    between atoms: _98  and  _99
REMARK   34  A    between atoms: _107  and  _108
REMARK   35  A    between atoms: _116  and  _118
REMARK   36  A    between atoms: _118  and  _119
REMARK   37  A    between atoms: _118  and  _121
REMARK   38  A    between atoms: _121  and  _122
REMARK   39  A    between atoms: _122  and  _123
REMARK   40  A    between atoms: _126  and  _128
REMARK   41  A    between atoms: _128  and  _129
REMARK   42  A    between atoms: _128  and  _131
REMARK   43  A    between atoms: _131  and  _132
REMARK   44  A    between atoms: _132  and  _133
REMARK   45  A    between atoms: _136  and  _138
REMARK   46  A    between atoms: _138  and  _139
REMARK   47  A    between atoms: _138  and  _141
REMARK   48  A    between atoms: _141  and  _142
REMARK   49  A    between atoms: _143  and  ZN_353
REMARK   50  A    between atoms: _147  and  _149
REMARK   51  A    between atoms: _149  and  _150
REMARK   52  A    between atoms: _149  and  _152
REMARK   53  A    between atoms: _152  and  _153
REMARK   54  A    between atoms: _156  and  _158
REMARK   55  A    between atoms: _158  and  _159
REMARK   56  A    between atoms: _158  and  _161
REMARK   57  A    between atoms: _164  and  _166
REMARK   58  A    between atoms: _166  and  _167
REMARK   59  A    between atoms: _166  and  _169
REMARK   60  A    between atoms: _169  and  _170
REMARK   61  A    between atoms: _175  and  _177
REMARK   62  A    between atoms: _177  and  _178
REMARK   63  A    between atoms: _177  and  _180
REMARK   64  A    between atoms: _180  and  _181
REMARK   65  A    between atoms: _187  and  _189
REMARK   66  A    between atoms: _189  and  _190
REMARK   67  A    between atoms: _189  and  _192
REMARK   68  A    between atoms: _195  and  _197
REMARK   69  A    between atoms: _197  and  _198
REMARK   70  A    between atoms: _197  and  _200
REMARK   71  A    between atoms: _200  and  _201
REMARK   72  A    between atoms: _204  and  _206
REMARK   73  A    between atoms: _206  and  _207
REMARK   74  A    between atoms: _210  and  _212
REMARK   75  A    between atoms: _212  and  _213
REMARK   76  A    between atoms: _212  and  _215
REMARK   77  A    between atoms: _218  and  _220
REMARK   78  A    between atoms: _220  and  _221
REMARK   79  A    between atoms: _220  and  _223
REMARK   80  A    between atoms: _223  and  _224
REMARK   81  A    between atoms: _227  and  _229
REMARK   82  A    between atoms: _229  and  _230
REMARK   83  A    between atoms: _229  and  _232
REMARK   84  A    between atoms: _232  and  _233
REMARK   85  A    between atoms: _235  and  _237
REMARK   86  A    between atoms: _237  and  _238
REMARK   87  A    between atoms: _237  and  _240
REMARK   88  A    between atoms: _240  and  _241
REMARK   89  A    between atoms: _244  and  _246
REMARK   90  A    between atoms: _246  and  _247
REMARK   91  A    between atoms: _246  and  _249
REMARK   92  A    between atoms: _249  and  _250
REMARK   93  A    between atoms: _253  and  _255
REMARK   94  A    between atoms: _255  and  _256
REMARK   95  A    between atoms: _255  and  _258
REMARK   96  A    between atoms: _258  and  _259
REMARK   97  A    between atoms: _263  and  _264
REMARK   98  A    between atoms: _270  and  _271
REMARK   99  A    between atoms: _276  and  _278
REMARK  100  A    between atoms: _278  and  _279
REMARK  101  A    between atoms: _278  and  _281
REMARK  102  A    between atoms: _281  and  _282
REMARK  103  A    between atoms: _285  and  _287
REMARK  104  A    between atoms: _287  and  _288
REMARK  105  A    between atoms: _287  and  _290
REMARK  106  A    between atoms: _290  and  _291
REMARK  107  A    between atoms: _294  and  _296
REMARK  108  A    between atoms: _296  and  _297
REMARK  109  A    between atoms: _296  and  _299
REMARK  110  A    between atoms: _301  and  _303
REMARK  111  A    between atoms: _303  and  _304
REMARK  112  A    between atoms: _303  and  _306
REMARK  113  A    between atoms: _309  and  _311
REMARK  114  A    between atoms: _311  and  _312
REMARK  115  A    between atoms: _311  and  _314
REMARK  116  A    between atoms: _314  and  _315
REMARK  117  A    between atoms: _325  and  _327
REMARK  118  A    between atoms: _327  and  _328
REMARK  119  A    between atoms: _327  and  _330
REMARK  120  A    between atoms: _330  and  _331
REMARK  121  A    between atoms: _336  and  _338
REMARK  122  A    between atoms: _338  and  _339
REMARK  123  A    between atoms: _338  and  _341
REMARK  124  A    between atoms: _341  and  _342
REMARK  125  A    between atoms: _342  and  _343
REMARK  126  A    between atoms: _343  and  _344
REMARK                            x       y       z     vdW  Elec       q    Type
REMARK                         _______ _______ _______ _____ _____    ______ ____
ROOT
ATOM      1  O   HOH     1      19.876   3.170  13.479  0.00  0.00    +0.000 OA
ENDROOT
TORSDOF 0
REMARK  Name = ../refined-set-2016/4q9y/4q9y_pocket.pdb
REMARK  126 active torsions:
REMARK  status: ('A' for Active; 'I' for Inactive)
REMARK    1  A    between atoms: _1  and  _3
REMARK    2  A    between atoms: _3  and  _4
REMARK    3  A    between atoms: _3  and  _6
REMARK    4  A    between atoms: _6  and  _7
REMARK    5  A    between atoms: _17  and  _19
REMARK    6  A    between atoms: _19  and  _20
REMARK    7  A    between atoms: _19  and  _22
REMARK    8  A    between atoms: _22  and  _23
REMARK    9  A    between atoms: _28  and  _29
REMARK   10  A    between atoms: _31  and  _33
REMARK   11  A    between atoms: _33  and  _34
REMARK   12  A    between atoms: _33  and  _36
REMARK   13  A    between atoms: _36  and  _37
REMARK   14  A    between atoms: _39  and  _41
REMARK   15  A    between atoms: _41  and  _42
REMARK   16  A    between atoms: _41  and  _44
REMARK   17  A    between atoms: _44  and  _45
REMARK   18  A    between atoms: _50  and  _52
REMARK   19  A    between atoms: _52  and  _53
REMARK   20  A    between atoms: _52  and  _55
REMARK   21  A    between atoms: _55  and  _56
REMARK   22  A    between atoms: _61  and  _63
REMARK   23  A    between atoms: _63  and  _64
REMARK   24  A    between atoms: _63  and  _66
REMARK   25  A    between atoms: _66  and  _67
REMARK   26  A    between atoms: _70  and  _72
REMARK   27  A    between atoms: _72  and  _73
REMARK   28  A    between atoms: _72  and  _75
REMARK   29  A    between atoms: _75  and  _76
REMARK   30  A    between atoms: _76  and  _77
REMARK   31  A    between atoms: _82  and  _84
REMARK   32  A    between atoms: _95  and  _98
REMARK   33  A    between atoms: _98  and  _99
REMARK   34  A    between atoms: _107  and  _108
REMARK   35  A    between atoms: _116  and  _118
REMARK   36  A    between atoms: _118  and  _119
REMARK   37  A    between atoms: _118  and  _121
REMARK   38  A    between atoms: _121  and  _122
REMARK   39  A    between atoms: _122  and  _123
REMARK   40  A    between atoms: _126  and  _128
REMARK   41  A    between atoms: _128  and  _129
REMARK   42  A    between atoms: _128  and  _131
REMARK   43  A    between atoms: _131  and  _132
REMARK   44  A    between atoms: _132  and  _133
REMARK   45  A    between atoms: _136  and  _138
REMARK   46  A    between atoms: _138  and  _139
REMARK   47  A    between atoms: _138  and  _141
REMARK   48  A    between atoms: _141  and  _142
REMARK   49  A    between atoms: _143  and  ZN_353
REMARK   50  A    between atoms: _147  and  _149
REMARK   51  A    between atoms: _149  and  _150
REMARK   52  A    between atoms: _149  and  _152
REMARK   53  A    between atoms: _152  and  _153
REMARK   54  A    between atoms: _156  and  _158
REMARK   55  A    between atoms: _158  and  _159
REMARK   56  A    between atoms: _158  and  _161
REMARK   57  A    between atoms: _164  and  _166
REMARK   58  A    between atoms: _166  and  _167
REMARK   59  A    between atoms: _166  and  _169
REMARK   60  A    between atoms: _169  and  _170
REMARK   61  A    between atoms: _175  and  _177
REMARK   62  A    between atoms: _177  and  _178
REMARK   63  A    between atoms: _177  and  _180
REMARK   64  A    between atoms: _180  and  _181
REMARK   65  A    between atoms: _187  and  _189
REMARK   66  A    between atoms: _189  and  _190
REMARK   67  A    between atoms: _189  and  _192
REMARK   68  A    between atoms: _195  and  _197
REMARK   69  A    between atoms: _197  and  _198
REMARK   70  A    between atoms: _197  and  _200
REMARK   71  A    between atoms: _200  and  _201
REMARK   72  A    between atoms: _204  and  _206
REMARK   73  A    between atoms: _206  and  _207
REMARK   74  A    between atoms: _210  and  _212
REMARK   75  A    between atoms: _212  and  _213
REMARK   76  A    between atoms: _212  and  _215
REMARK   77  A    between atoms: _218  and  _220
REMARK   78  A    between atoms: _220  and  _221
REMARK   79  A    between atoms: _220  and  _223
REMARK   80  A    between atoms: _223  and  _224
REMARK   81  A    between atoms: _227  and  _229
REMARK   82  A    between atoms: _229  and  _230
REMARK   83  A    between atoms: _229  and  _232
REMARK   84  A    between atoms: _232  and  _233
REMARK   85  A    between atoms: _235  and  _237
REMARK   86  A    between atoms: _237  and  _238
REMARK   87  A    between atoms: _237  and  _240
REMARK   88  A    between atoms: _240  and  _241
REMARK   89  A    between atoms: _244  and  _246
REMARK   90  A    between atoms: _246  and  _247
REMARK   91  A    between atoms: _246  and  _249
REMARK   92  A    between atoms: _249  and  _250
REMARK   93  A    between atoms: _253  and  _255
REMARK   94  A    between atoms: _255  and  _256
REMARK   95  A    between atoms: _255  and  _258
REMARK   96  A    between atoms: _258  and  _259
REMARK   97  A    between atoms: _263  and  _264
REMARK   98  A    between atoms: _270  and  _271
REMARK   99  A    between atoms: _276  and  _278
REMARK  100  A    between atoms: _278  and  _279
REMARK  101  A    between atoms: _278  and  _281
REMARK  102  A    between atoms: _281  and  _282
REMARK  103  A    between atoms: _285  and  _287
REMARK  104  A    between atoms: _287  and  _288
REMARK  105  A    between atoms: _287  and  _290
REMARK  106  A    between atoms: _290  and  _291
REMARK  107  A    between atoms: _294  and  _296
REMARK  108  A    between atoms: _296  and  _297
REMARK  109  A    between atoms: _296  and  _299
REMARK  110  A    between atoms: _301  and  _303
REMARK  111  A    between atoms: _303  and  _304
REMARK  112  A    between atoms: _303  and  _306
REMARK  113  A    between atoms: _309  and  _311
REMARK  114  A    between atoms: _311  and  _312
REMARK  115  A    between atoms: _311  and  _314
REMARK  116  A    between atoms: _314  and  _315
REMARK  117  A    between atoms: _325  and  _327
REMARK  118  A    between atoms: _327  and  _328
REMARK  119  A    between atoms: _327  and  _330
REMARK  120  A    between atoms: _330  and  _331
REMARK  121  A    between atoms: _336  and  _338
REMARK  122  A    between atoms: _338  and  _339
REMARK  123  A    between atoms: _338  and  _341
REMARK  124  A    between atoms: _341  and  _342
REMARK  125  A    between atoms: _342  and  _343
REMARK  126  A    between atoms: _343  and  _344
REMARK                            x       y       z     vdW  Elec       q    Type
REMARK                         _______ _______ _______ _____ _____    ______ ____
ROOT
ATOM      1  O   HOH     1      12.928   7.479   8.400  0.00  0.00    +0.000 OA
ENDROOT
TORSDOF 0
REMARK  Name = ../refined-set-2016/4q9y/4q9y_pocket.pdb
REMARK  126 active torsions:
REMARK  status: ('A' for Active; 'I' for Inactive)
REMARK    1  A    between atoms: _1  and  _3
REMARK    2  A    between atoms: _3  and  _4
REMARK    3  A    between atoms: _3  and  _6
REMARK    4  A    between atoms: _6  and  _7
REMARK    5  A    between atoms: _17  and  _19
REMARK    6  A    between atoms: _19  and  _20
REMARK    7  A    between atoms: _19  and  _22
REMARK    8  A    between atoms: _22  and  _23
REMARK    9  A    between atoms: _28  and  _29
REMARK   10  A    between atoms: _31  and  _33
REMARK   11  A    between atoms: _33  and  _34
REMARK   12  A    between atoms: _33  and  _36
REMARK   13  A    between atoms: _36  and  _37
REMARK   14  A    between atoms: _39  and  _41
REMARK   15  A    between atoms: _41  and  _42
REMARK   16  A    between atoms: _41  and  _44
REMARK   17  A    between atoms: _44  and  _45
REMARK   18  A    between atoms: _50  and  _52
REMARK   19  A    between atoms: _52  and  _53
REMARK   20  A    between atoms: _52  and  _55
REMARK   21  A    between atoms: _55  and  _56
REMARK   22  A    between atoms: _61  and  _63
REMARK   23  A    between atoms: _63  and  _64
REMARK   24  A    between atoms: _63  and  _66
REMARK   25  A    between atoms: _66  and  _67
REMARK   26  A    between atoms: _70  and  _72
REMARK   27  A    between atoms: _72  and  _73
REMARK   28  A    between atoms: _72  and  _75
REMARK   29  A    between atoms: _75  and  _76
REMARK   30  A    between atoms: _76  and  _77
REMARK   31  A    between atoms: _82  and  _84
REMARK   32  A    between atoms: _95  and  _98
REMARK   33  A    between atoms: _98  and  _99
REMARK   34  A    between atoms: _107  and  _108
REMARK   35  A    between atoms: _116  and  _118
REMARK   36  A    between atoms: _118  and  _119
REMARK   37  A    between atoms: _118  and  _121
REMARK   38  A    between atoms: _121  and  _122
REMARK   39  A    between atoms: _122  and  _123
REMARK   40  A    between atoms: _126  and  _128
REMARK   41  A    between atoms: _128  and  _129
REMARK   42  A    between atoms: _128  and  _131
REMARK   43  A    between atoms: _131  and  _132
REMARK   44  A    between atoms: _132  and  _133
REMARK   45  A    between atoms: _136  and  _138
REMARK   46  A    between atoms: _138  and  _139
REMARK   47  A    between atoms: _138  and  _141
REMARK   48  A    between atoms: _141  and  _142
REMARK   49  A    between atoms: _143  and  ZN_353
REMARK   50  A    between atoms: _147  and  _149
REMARK   51  A    between atoms: _149  and  _150
REMARK   52  A    between atoms: _149  and  _152
REMARK   53  A    between atoms: _152  and  _153
REMARK   54  A    between atoms: _156  and  _158
REMARK   55  A    between atoms: _158  and  _159
REMARK   56  A    between atoms: _158  and  _161
REMARK   57  A    between atoms: _164  and  _166
REMARK   58  A    between atoms: _166  and  _167
REMARK   59  A    between atoms: _166  and  _169
REMARK   60  A    between atoms: _169  and  _170
REMARK   61  A    between atoms: _175  and  _177
REMARK   62  A    between atoms: _177  and  _178
REMARK   63  A    between atoms: _177  and  _180
REMARK   64  A    between atoms: _180  and  _181
REMARK   65  A    between atoms: _187  and  _189
REMARK   66  A    between atoms: _189  and  _190
REMARK   67  A    between atoms: _189  and  _192
REMARK   68  A    between atoms: _195  and  _197
REMARK   69  A    between atoms: _197  and  _198
REMARK   70  A    between atoms: _197  and  _200
REMARK   71  A    between atoms: _200  and  _201
REMARK   72  A    between atoms: _204  and  _206
REMARK   73  A    between atoms: _206  and  _207
REMARK   74  A    between atoms: _210  and  _212
REMARK   75  A    between atoms: _212  and  _213
REMARK   76  A    between atoms: _212  and  _215
REMARK   77  A    between atoms: _218  and  _220
REMARK   78  A    between atoms: _220  and  _221
REMARK   79  A    between atoms: _220  and  _223
REMARK   80  A    between atoms: _223  and  _224
REMARK   81  A    between atoms: _227  and  _229
REMARK   82  A    between atoms: _229  and  _230
REMARK   83  A    between atoms: _229  and  _232
REMARK   84  A    between atoms: _232  and  _233
REMARK   85  A    between atoms: _235  and  _237
REMARK   86  A    between atoms: _237  and  _238
REMARK   87  A    between atoms: _237  and  _240
REMARK   88  A    between atoms: _240  and  _241
REMARK   89  A    between atoms: _244  and  _246
REMARK   90  A    between atoms: _246  and  _247
REMARK   91  A    between atoms: _246  and  _249
REMARK   92  A    between atoms: _249  and  _250
REMARK   93  A    between atoms: _253  and  _255
REMARK   94  A    between atoms: _255  and  _256
REMARK   95  A    between atoms: _255  and  _258
REMARK   96  A    between atoms: _258  and  _259
REMARK   97  A    between atoms: _263  and  _264
REMARK   98  A    between atoms: _270  and  _271
REMARK   99  A    between atoms: _276  and  _278
REMARK  100  A    between atoms: _278  and  _279
REMARK  101  A    between atoms: _278  and  _281
REMARK  102  A    between atoms: _281  and  _282
REMARK  103  A    between atoms: _285  and  _287
REMARK  104  A    between atoms: _287  and  _288
REMARK  105  A    between atoms: _287  and  _290
REMARK  106  A    between atoms: _290  and  _291
REMARK  107  A    between atoms: _294  and  _296
REMARK  108  A    between atoms: _296  and  _297
REMARK  109  A    between atoms: _296  and  _299
REMARK  110  A    between atoms: _301  and  _303
REMARK  111  A    between atoms: _303  and  _304
REMARK  112  A    between atoms: _303  and  _306
REMARK  113  A    between atoms: _309  and  _311
REMARK  114  A    between atoms: _311  and  _312
REMARK  115  A    between atoms: _311  and  _314
REMARK  116  A    between atoms: _314  and  _315
REMARK  117  A    between atoms: _325  and  _327
REMARK  118  A    between atoms: _327  and  _328
REMARK  119  A    between atoms: _327  and  _330
REMARK  120  A    between atoms: _330  and  _331
REMARK  121  A    between atoms: _336  and  _338
REMARK  122  A    between atoms: _338  and  _339
REMARK  123  A    between atoms: _338  and  _341
REMARK  124  A    between atoms: _341  and  _342
REMARK  125  A    between atoms: _342  and  _343
REMARK  126  A    between atoms: _343  and  _344
REMARK                            x       y       z     vdW  Elec       q    Type
REMARK                         _______ _______ _______ _____ _____    ______ ____
ROOT
ATOM      1  O   HOH     1      14.430   6.758  10.566  0.00  0.00    +0.000 OA
ENDROOT
TORSDOF 0
REMARK  Name = ../refined-set-2016/4q9y/4q9y_pocket.pdb
REMARK  126 active torsions:
REMARK  status: ('A' for Active; 'I' for Inactive)
REMARK    1  A    between atoms: _1  and  _3
REMARK    2  A    between atoms: _3  and  _4
REMARK    3  A    between atoms: _3  and  _6
REMARK    4  A    between atoms: _6  and  _7
REMARK    5  A    between atoms: _17  and  _19
REMARK    6  A    between atoms: _19  and  _20
REMARK    7  A    between atoms: _19  and  _22
REMARK    8  A    between atoms: _22  and  _23
REMARK    9  A    between atoms: _28  and  _29
REMARK   10  A    between atoms: _31  and  _33
REMARK   11  A    between atoms: _33  and  _34
REMARK   12  A    between atoms: _33  and  _36
REMARK   13  A    between atoms: _36  and  _37
REMARK   14  A    between atoms: _39  and  _41
REMARK   15  A    between atoms: _41  and  _42
REMARK   16  A    between atoms: _41  and  _44
REMARK   17  A    between atoms: _44  and  _45
REMARK   18  A    between atoms: _50  and  _52
REMARK   19  A    between atoms: _52  and  _53
REMARK   20  A    between atoms: _52  and  _55
REMARK   21  A    between atoms: _55  and  _56
REMARK   22  A    between atoms: _61  and  _63
REMARK   23  A    between atoms: _63  and  _64
REMARK   24  A    between atoms: _63  and  _66
REMARK   25  A    between atoms: _66  and  _67
REMARK   26  A    between atoms: _70  and  _72
REMARK   27  A    between atoms: _72  and  _73
REMARK   28  A    between atoms: _72  and  _75
REMARK   29  A    between atoms: _75  and  _76
REMARK   30  A    between atoms: _76  and  _77
REMARK   31  A    between atoms: _82  and  _84
REMARK   32  A    between atoms: _95  and  _98
REMARK   33  A    between atoms: _98  and  _99
REMARK   34  A    between atoms: _107  and  _108
REMARK   35  A    between atoms: _116  and  _118
REMARK   36  A    between atoms: _118  and  _119
REMARK   37  A    between atoms: _118  and  _121
REMARK   38  A    between atoms: _121  and  _122
REMARK   39  A    between atoms: _122  and  _123
REMARK   40  A    between atoms: _126  and  _128
REMARK   41  A    between atoms: _128  and  _129
REMARK   42  A    between atoms: _128  and  _131
REMARK   43  A    between atoms: _131  and  _132
REMARK   44  A    between atoms: _132  and  _133
REMARK   45  A    between atoms: _136  and  _138
REMARK   46  A    between atoms: _138  and  _139
REMARK   47  A    between atoms: _138  and  _141
REMARK   48  A    between atoms: _141  and  _142
REMARK   49  A    between atoms: _143  and  ZN_353
REMARK   50  A    between atoms: _147  and  _149
REMARK   51  A    between atoms: _149  and  _150
REMARK   52  A    between atoms: _149  and  _152
REMARK   53  A    between atoms: _152  and  _153
REMARK   54  A    between atoms: _156  and  _158
REMARK   55  A    between atoms: _158  and  _159
REMARK   56  A    between atoms: _158  and  _161
REMARK   57  A    between atoms: _164  and  _166
REMARK   58  A    between atoms: _166  and  _167
REMARK   59  A    between atoms: _166  and  _169
REMARK   60  A    between atoms: _169  and  _170
REMARK   61  A    between atoms: _175  and  _177
REMARK   62  A    between atoms: _177  and  _178
REMARK   63  A    between atoms: _177  and  _180
REMARK   64  A    between atoms: _180  and  _181
REMARK   65  A    between atoms: _187  and  _189
REMARK   66  A    between atoms: _189  and  _190
REMARK   67  A    between atoms: _189  and  _192
REMARK   68  A    between atoms: _195  and  _197
REMARK   69  A    between atoms: _197  and  _198
REMARK   70  A    between atoms: _197  and  _200
REMARK   71  A    between atoms: _200  and  _201
REMARK   72  A    between atoms: _204  and  _206
REMARK   73  A    between atoms: _206  and  _207
REMARK   74  A    between atoms: _210  and  _212
REMARK   75  A    between atoms: _212  and  _213
REMARK   76  A    between atoms: _212  and  _215
REMARK   77  A    between atoms: _218  and  _220
REMARK   78  A    between atoms: _220  and  _221
REMARK   79  A    between atoms: _220  and  _223
REMARK   80  A    between atoms: _223  and  _224
REMARK   81  A    between atoms: _227  and  _229
REMARK   82  A    between atoms: _229  and  _230
REMARK   83  A    between atoms: _229  and  _232
REMARK   84  A    between atoms: _232  and  _233
REMARK   85  A    between atoms: _235  and  _237
REMARK   86  A    between atoms: _237  and  _238
REMARK   87  A    between atoms: _237  and  _240
REMARK   88  A    between atoms: _240  and  _241
REMARK   89  A    between atoms: _244  and  _246
REMARK   90  A    between atoms: _246  and  _247
REMARK   91  A    between atoms: _246  and  _249
REMARK   92  A    between atoms: _249  and  _250
REMARK   93  A    between atoms: _253  and  _255
REMARK   94  A    between atoms: _255  and  _256
REMARK   95  A    between atoms: _255  and  _258
REMARK   96  A    between atoms: _258  and  _259
REMARK   97  A    between atoms: _263  and  _264
REMARK   98  A    between atoms: _270  and  _271
REMARK   99  A    between atoms: _276  and  _278
REMARK  100  A    between atoms: _278  and  _279
REMARK  101  A    between atoms: _278  and  _281
REMARK  102  A    between atoms: _281  and  _282
REMARK  103  A    between atoms: _285  and  _287
REMARK  104  A    between atoms: _287  and  _288
REMARK  105  A    between atoms: _287  and  _290
REMARK  106  A    between atoms: _290  and  _291
REMARK  107  A    between atoms: _294  and  _296
REMARK  108  A    between atoms: _296  and  _297
REMARK  109  A    between atoms: _296  and  _299
REMARK  110  A    between atoms: _301  and  _303
REMARK  111  A    between atoms: _303  and  _304
REMARK  112  A    between atoms: _303  and  _306
REMARK  113  A    between atoms: _309  and  _311
REMARK  114  A    between atoms: _311  and  _312
REMARK  115  A    between atoms: _311  and  _314
REMARK  116  A    between atoms: _314  and  _315
REMARK  117  A    between atoms: _325  and  _327
REMARK  118  A    between atoms: _327  and  _328
REMARK  119  A    between atoms: _327  and  _330
REMARK  120  A    between atoms: _330  and  _331
REMARK  121  A    between atoms: _336  and  _338
REMARK  122  A    between atoms: _338  and  _339
REMARK  123  A    between atoms: _338  and  _341
REMARK  124  A    between atoms: _341  and  _342
REMARK  125  A    between atoms: _342  and  _343
REMARK  126  A    between atoms: _343  and  _344
REMARK                            x       y       z     vdW  Elec       q    Type
REMARK                         _______ _______ _______ _____ _____    ______ ____
ROOT
ATOM      1  O   HOH     1      20.104   1.463  10.791  0.00  0.00    +0.000 OA
ENDROOT
TORSDOF 0
REMARK  Name = ../refined-set-2016/4q9y/4q9y_pocket.pdb
REMARK  126 active torsions:
REMARK  status: ('A' for Active; 'I' for Inactive)
REMARK    1  A    between atoms: _1  and  _3
REMARK    2  A    between atoms: _3  and  _4
REMARK    3  A    between atoms: _3  and  _6
REMARK    4  A    between atoms: _6  and  _7
REMARK    5  A    between atoms: _17  and  _19
REMARK    6  A    between atoms: _19  and  _20
REMARK    7  A    between atoms: _19  and  _22
REMARK    8  A    between atoms: _22  and  _23
REMARK    9  A    between atoms: _28  and  _29
REMARK   10  A    between atoms: _31  and  _33
REMARK   11  A    between atoms: _33  and  _34
REMARK   12  A    between atoms: _33  and  _36
REMARK   13  A    between atoms: _36  and  _37
REMARK   14  A    between atoms: _39  and  _41
REMARK   15  A    between atoms: _41  and  _42
REMARK   16  A    between atoms: _41  and  _44
REMARK   17  A    between atoms: _44  and  _45
REMARK   18  A    between atoms: _50  and  _52
REMARK   19  A    between atoms: _52  and  _53
REMARK   20  A    between atoms: _52  and  _55
REMARK   21  A    between atoms: _55  and  _56
REMARK   22  A    between atoms: _61  and  _63
REMARK   23  A    between atoms: _63  and  _64
REMARK   24  A    between atoms: _63  and  _66
REMARK   25  A    between atoms: _66  and  _67
REMARK   26  A    between atoms: _70  and  _72
REMARK   27  A    between atoms: _72  and  _73
REMARK   28  A    between atoms: _72  and  _75
REMARK   29  A    between atoms: _75  and  _76
REMARK   30  A    between atoms: _76  and  _77
REMARK   31  A    between atoms: _82  and  _84
REMARK   32  A    between atoms: _95  and  _98
REMARK   33  A    between atoms: _98  and  _99
REMARK   34  A    between atoms: _107  and  _108
REMARK   35  A    between atoms: _116  and  _118
REMARK   36  A    between atoms: _118  and  _119
REMARK   37  A    between atoms: _118  and  _121
REMARK   38  A    between atoms: _121  and  _122
REMARK   39  A    between atoms: _122  and  _123
REMARK   40  A    between atoms: _126  and  _128
REMARK   41  A    between atoms: _128  and  _129
REMARK   42  A    between atoms: _128  and  _131
REMARK   43  A    between atoms: _131  and  _132
REMARK   44  A    between atoms: _132  and  _133
REMARK   45  A    between atoms: _136  and  _138
REMARK   46  A    between atoms: _138  and  _139
REMARK   47  A    between atoms: _138  and  _141
REMARK   48  A    between atoms: _141  and  _142
REMARK   49  A    between atoms: _143  and  ZN_353
REMARK   50  A    between atoms: _147  and  _149
REMARK   51  A    between atoms: _149  and  _150
REMARK   52  A    between atoms: _149  and  _152
REMARK   53  A    between atoms: _152  and  _153
REMARK   54  A    between atoms: _156  and  _158
REMARK   55  A    between atoms: _158  and  _159
REMARK   56  A    between atoms: _158  and  _161
REMARK   57  A    between atoms: _164  and  _166
REMARK   58  A    between atoms: _166  and  _167
REMARK   59  A    between atoms: _166  and  _169
REMARK   60  A    between atoms: _169  and  _170
REMARK   61  A    between atoms: _175  and  _177
REMARK   62  A    between atoms: _177  and  _178
REMARK   63  A    between atoms: _177  and  _180
REMARK   64  A    between atoms: _180  and  _181
REMARK   65  A    between atoms: _187  and  _189
REMARK   66  A    between atoms: _189  and  _190
REMARK   67  A    between atoms: _189  and  _192
REMARK   68  A    between atoms: _195  and  _197
REMARK   69  A    between atoms: _197  and  _198
REMARK   70  A    between atoms: _197  and  _200
REMARK   71  A    between atoms: _200  and  _201
REMARK   72  A    between atoms: _204  and  _206
REMARK   73  A    between atoms: _206  and  _207
REMARK   74  A    between atoms: _210  and  _212
REMARK   75  A    between atoms: _212  and  _213
REMARK   76  A    between atoms: _212  and  _215
REMARK   77  A    between atoms: _218  and  _220
REMARK   78  A    between atoms: _220  and  _221
REMARK   79  A    between atoms: _220  and  _223
REMARK   80  A    between atoms: _223  and  _224
REMARK   81  A    between atoms: _227  and  _229
REMARK   82  A    between atoms: _229  and  _230
REMARK   83  A    between atoms: _229  and  _232
REMARK   84  A    between atoms: _232  and  _233
REMARK   85  A    between atoms: _235  and  _237
REMARK   86  A    between atoms: _237  and  _238
REMARK   87  A    between atoms: _237  and  _240
REMARK   88  A    between atoms: _240  and  _241
REMARK   89  A    between atoms: _244  and  _246
REMARK   90  A    between atoms: _246  and  _247
REMARK   91  A    between atoms: _246  and  _249
REMARK   92  A    between atoms: _249  and  _250
REMARK   93  A    between atoms: _253  and  _255
REMARK   94  A    between atoms: _255  and  _256
REMARK   95  A    between atoms: _255  and  _258
REMARK   96  A    between atoms: _258  and  _259
REMARK   97  A    between atoms: _263  and  _264
REMARK   98  A    between atoms: _270  and  _271
REMARK   99  A    between atoms: _276  and  _278
REMARK  100  A    between atoms: _278  and  _279
REMARK  101  A    between atoms: _278  and  _281
REMARK  102  A    between atoms: _281  and  _282
REMARK  103  A    between atoms: _285  and  _287
REMARK  104  A    between atoms: _287  and  _288
REMARK  105  A    between atoms: _287  and  _290
REMARK  106  A    between atoms: _290  and  _291
REMARK  107  A    between atoms: _294  and  _296
REMARK  108  A    between atoms: _296  and  _297
REMARK  109  A    between atoms: _296  and  _299
REMARK  110  A    between atoms: _301  and  _303
REMARK  111  A    between atoms: _303  and  _304
REMARK  112  A    between atoms: _303  and  _306
REMARK  113  A    between atoms: _309  and  _311
REMARK  114  A    between atoms: _311  and  _312
REMARK  115  A    between atoms: _311  and  _314
REMARK  116  A    between atoms: _314  and  _315
REMARK  117  A    between atoms: _325  and  _327
REMARK  118  A    between atoms: _327  and  _328
REMARK  119  A    between atoms: _327  and  _330
REMARK  120  A    between atoms: _330  and  _331
REMARK  121  A    between atoms: _336  and  _338
REMARK  122  A    between atoms: _338  and  _339
REMARK  123  A    between atoms: _338  and  _341
REMARK  124  A    between atoms: _341  and  _342
REMARK  125  A    between atoms: _342  and  _343
REMARK  126  A    between atoms: _343  and  _344
REMARK                            x       y       z     vdW  Elec       q    Type
REMARK                         _______ _______ _______ _____ _____    ______ ____
ROOT
ATOM      1  O   HOH     1      17.257   5.318  10.275  0.00  0.00    +0.000 OA
ENDROOT
TORSDOF 0
REMARK  Name = ../refined-set-2016/4q9y/4q9y_pocket.pdb
REMARK  126 active torsions:
REMARK  status: ('A' for Active; 'I' for Inactive)
REMARK    1  A    between atoms: _1  and  _3
REMARK    2  A    between atoms: _3  and  _4
REMARK    3  A    between atoms: _3  and  _6
REMARK    4  A    between atoms: _6  and  _7
REMARK    5  A    between atoms: _17  and  _19
REMARK    6  A    between atoms: _19  and  _20
REMARK    7  A    between atoms: _19  and  _22
REMARK    8  A    between atoms: _22  and  _23
REMARK    9  A    between atoms: _28  and  _29
REMARK   10  A    between atoms: _31  and  _33
REMARK   11  A    between atoms: _33  and  _34
REMARK   12  A    between atoms: _33  and  _36
REMARK   13  A    between atoms: _36  and  _37
REMARK   14  A    between atoms: _39  and  _41
REMARK   15  A    between atoms: _41  and  _42
REMARK   16  A    between atoms: _41  and  _44
REMARK   17  A    between atoms: _44  and  _45
REMARK   18  A    between atoms: _50  and  _52
REMARK   19  A    between atoms: _52  and  _53
REMARK   20  A    between atoms: _52  and  _55
REMARK   21  A    between atoms: _55  and  _56
REMARK   22  A    between atoms: _61  and  _63
REMARK   23  A    between atoms: _63  and  _64
REMARK   24  A    between atoms: _63  and  _66
REMARK   25  A    between atoms: _66  and  _67
REMARK   26  A    between atoms: _70  and  _72
REMARK   27  A    between atoms: _72  and  _73
REMARK   28  A    between atoms: _72  and  _75
REMARK   29  A    between atoms: _75  and  _76
REMARK   30  A    between atoms: _76  and  _77
REMARK   31  A    between atoms: _82  and  _84
REMARK   32  A    between atoms: _95  and  _98
REMARK   33  A    between atoms: _98  and  _99
REMARK   34  A    between atoms: _107  and  _108
REMARK   35  A    between atoms: _116  and  _118
REMARK   36  A    between atoms: _118  and  _119
REMARK   37  A    between atoms: _118  and  _121
REMARK   38  A    between atoms: _121  and  _122
REMARK   39  A    between atoms: _122  and  _123
REMARK   40  A    between atoms: _126  and  _128
REMARK   41  A    between atoms: _128  and  _129
REMARK   42  A    between atoms: _128  and  _131
REMARK   43  A    between atoms: _131  and  _132
REMARK   44  A    between atoms: _132  and  _133
REMARK   45  A    between atoms: _136  and  _138
REMARK   46  A    between atoms: _138  and  _139
REMARK   47  A    between atoms: _138  and  _141
REMARK   48  A    between atoms: _141  and  _142
REMARK   49  A    between atoms: _143  and  ZN_353
REMARK   50  A    between atoms: _147  and  _149
REMARK   51  A    between atoms: _149  and  _150
REMARK   52  A    between atoms: _149  and  _152
REMARK   53  A    between atoms: _152  and  _153
REMARK   54  A    between atoms: _156  and  _158
REMARK   55  A    between atoms: _158  and  _159
REMARK   56  A    between atoms: _158  and  _161
REMARK   57  A    between atoms: _164  and  _166
REMARK   58  A    between atoms: _166  and  _167
REMARK   59  A    between atoms: _166  and  _169
REMARK   60  A    between atoms: _169  and  _170
REMARK   61  A    between atoms: _175  and  _177
REMARK   62  A    between atoms: _177  and  _178
REMARK   63  A    between atoms: _177  and  _180
REMARK   64  A    between atoms: _180  and  _181
REMARK   65  A    between atoms: _187  and  _189
REMARK   66  A    between atoms: _189  and  _190
REMARK   67  A    between atoms: _189  and  _192
REMARK   68  A    between atoms: _195  and  _197
REMARK   69  A    between atoms: _197  and  _198
REMARK   70  A    between atoms: _197  and  _200
REMARK   71  A    between atoms: _200  and  _201
REMARK   72  A    between atoms: _204  and  _206
REMARK   73  A    between atoms: _206  and  _207
REMARK   74  A    between atoms: _210  and  _212
REMARK   75  A    between atoms: _212  and  _213
REMARK   76  A    between atoms: _212  and  _215
REMARK   77  A    between atoms: _218  and  _220
REMARK   78  A    between atoms: _220  and  _221
REMARK   79  A    between atoms: _220  and  _223
REMARK   80  A    between atoms: _223  and  _224
REMARK   81  A    between atoms: _227  and  _229
REMARK   82  A    between atoms: _229  and  _230
REMARK   83  A    between atoms: _229  and  _232
REMARK   84  A    between atoms: _232  and  _233
REMARK   85  A    between atoms: _235  and  _237
REMARK   86  A    between atoms: _237  and  _238
REMARK   87  A    between atoms: _237  and  _240
REMARK   88  A    between atoms: _240  and  _241
REMARK   89  A    between atoms: _244  and  _246
REMARK   90  A    between atoms: _246  and  _247
REMARK   91  A    between atoms: _246  and  _249
REMARK   92  A    between atoms: _249  and  _250
REMARK   93  A    between atoms: _253  and  _255
REMARK   94  A    between atoms: _255  and  _256
REMARK   95  A    between atoms: _255  and  _258
REMARK   96  A    between atoms: _258  and  _259
REMARK   97  A    between atoms: _263  and  _264
REMARK   98  A    between atoms: _270  and  _271
REMARK   99  A    between atoms: _276  and  _278
REMARK  100  A    between atoms: _278  and  _279
REMARK  101  A    between atoms: _278  and  _281
REMARK  102  A    between atoms: _281  and  _282
REMARK  103  A    between atoms: _285  and  _287
REMARK  104  A    between atoms: _287  and  _288
REMARK  105  A    between atoms: _287  and  _290
REMARK  106  A    between atoms: _290  and  _291
REMARK  107  A    between atoms: _294  and  _296
REMARK  108  A    between atoms: _296  and  _297
REMARK  109  A    between atoms: _296  and  _299
REMARK  110  A    between atoms: _301  and  _303
REMARK  111  A    between atoms: _303  and  _304
REMARK  112  A    between atoms: _303  and  _306
REMARK  113  A    between atoms: _309  and  _311
REMARK  114  A    between atoms: _311  and  _312
REMARK  115  A    between atoms: _311  and  _314
REMARK  116  A    between atoms: _314  and  _315
REMARK  117  A    between atoms: _325  and  _327
REMARK  118  A    between atoms: _327  and  _328
REMARK  119  A    between atoms: _327  and  _330
REMARK  120  A    between atoms: _330  and  _331
REMARK  121  A    between atoms: _336  and  _338
REMARK  122  A    between atoms: _338  and  _339
REMARK  123  A    between atoms: _338  and  _341
REMARK  124  A    between atoms: _341  and  _342
REMARK  125  A    between atoms: _342  and  _343
REMARK  126  A    between atoms: _343  and  _344
REMARK                            x       y       z     vdW  Elec       q    Type
REMARK                         _______ _______ _______ _____ _____    ______ ____
ROOT
ATOM      1  O   HOH     1      17.856   4.364   7.685  0.00  0.00    +0.000 OA
ENDROOT
TORSDOF 0
