REMARK  Name = ../refined-set-2016/2c92/2c92_pocket.pdb
REMARK  215 active torsions:
REMARK  status: ('A' for Active; 'I' for Inactive)
REMARK    1  A    between atoms: _1  and  _3
REMARK    2  A    between atoms: _3  and  _4
REMARK    3  A    between atoms: _7  and  _9
REMARK    4  A    between atoms: _9  and  _10
REMARK    5  A    between atoms: _9  and  _12
REMARK    6  A    between atoms: _12  and  _13
REMARK    7  A    between atoms: _15  and  _17
REMARK    8  A    between atoms: _17  and  _18
REMARK    9  A    between atoms: _17  and  _20
REMARK   10  A    between atoms: _20  and  _21
REMARK   11  A    between atoms: _23  and  _25
REMARK   12  A    between atoms: _25  and  _26
REMARK   13  A    between atoms: _25  and  _28
REMARK   14  A    between atoms: _28  and  _29
REMARK   15  A    between atoms: _39  and  _41
REMARK   16  A    between atoms: _41  and  _42
REMARK   17  A    between atoms: _41  and  _44
REMARK   18  A    between atoms: _44  and  _45
REMARK   19  A    between atoms: _50  and  _52
REMARK   20  A    between atoms: _52  and  _53
REMARK   21  A    between atoms: _52  and  _55
REMARK   22  A    between atoms: _57  and  _59
REMARK   23  A    between atoms: _59  and  _60
REMARK   24  A    between atoms: _59  and  _62
REMARK   25  A    between atoms: _65  and  _67
REMARK   26  A    between atoms: _67  and  _68
REMARK   27  A    between atoms: _67  and  _70
REMARK   28  A    between atoms: _70  and  _71
REMARK   29  A    between atoms: _74  and  _76
REMARK   30  A    between atoms: _76  and  _77
REMARK   31  A    between atoms: _79  and  _81
REMARK   32  A    between atoms: _81  and  _82
REMARK   33  A    between atoms: _85  and  _87
REMARK   34  A    between atoms: _87  and  _88
REMARK   35  A    between atoms: _87  and  _90
REMARK   36  A    between atoms: _90  and  _91
REMARK   37  A    between atoms: _94  and  _96
REMARK   38  A    between atoms: _96  and  _97
REMARK   39  A    between atoms: _96  and  _99
REMARK   40  A    between atoms: _99  and  _100
REMARK   41  A    between atoms: _100  and  _101
REMARK   42  A    between atoms: _104  and  _106
REMARK   43  A    between atoms: _106  and  _107
REMARK   44  A    between atoms: _106  and  _109
REMARK   45  A    between atoms: _109  and  _110
REMARK   46  A    between atoms: _113  and  _115
REMARK   47  A    between atoms: _115  and  _116
REMARK   48  A    between atoms: _115  and  _118
REMARK   49  A    between atoms: _118  and  _119
REMARK   50  A    between atoms: _122  and  _124
REMARK   51  A    between atoms: _124  and  _125
REMARK   52  A    between atoms: _127  and  _129
REMARK   53  A    between atoms: _129  and  _130
REMARK   54  A    between atoms: _129  and  _132
REMARK   55  A    between atoms: _135  and  _137
REMARK   56  A    between atoms: _137  and  _138
REMARK   57  A    between atoms: _137  and  _140
REMARK   58  A    between atoms: _143  and  _145
REMARK   59  A    between atoms: _145  and  _146
REMARK   60  A    between atoms: _145  and  _148
REMARK   61  A    between atoms: _148  and  _149
REMARK   62  A    between atoms: _152  and  _154
REMARK   63  A    between atoms: _154  and  _155
REMARK   64  A    between atoms: _154  and  _157
REMARK   65  A    between atoms: _157  and  _158
REMARK   66  A    between atoms: _158  and  _159
REMARK   67  A    between atoms: _159  and  _160
REMARK   68  A    between atoms: _169  and  _171
REMARK   69  A    between atoms: _171  and  _172
REMARK   70  A    between atoms: _174  and  _176
REMARK   71  A    between atoms: _176  and  _177
REMARK   72  A    between atoms: _176  and  _179
REMARK   73  A    between atoms: _179  and  _180
REMARK   74  A    between atoms: _180  and  _181
REMARK   75  A    between atoms: _186  and  _188
REMARK   76  A    between atoms: _188  and  _189
REMARK   77  A    between atoms: _188  and  _191
REMARK   78  A    between atoms: _191  and  _192
REMARK   79  A    between atoms: _196  and  _197
REMARK   80  A    between atoms: _202  and  _204
REMARK   81  A    between atoms: _204  and  _205
REMARK   82  A    between atoms: _204  and  _207
REMARK   83  A    between atoms: _207  and  _208
REMARK   84  A    between atoms: _213  and  _215
REMARK   85  A    between atoms: _215  and  _216
REMARK   86  A    between atoms: _215  and  _218
REMARK   87  A    between atoms: _218  and  _219
REMARK   88  A    between atoms: _225  and  _227
REMARK   89  A    between atoms: _227  and  _228
REMARK   90  A    between atoms: _227  and  _230
REMARK   91  A    between atoms: _230  and  _231
REMARK   92  A    between atoms: _234  and  _236
REMARK   93  A    between atoms: _236  and  _237
REMARK   94  A    between atoms: _236  and  _239
REMARK   95  A    between atoms: _239  and  _240
REMARK   96  A    between atoms: _245  and  _246
REMARK   97  A    between atoms: _248  and  _250
REMARK   98  A    between atoms: _250  and  _251
REMARK   99  A    between atoms: _250  and  _253
REMARK  100  A    between atoms: _256  and  _258
REMARK  101  A    between atoms: _258  and  _259
REMARK  102  A    between atoms: _258  and  _261
REMARK  103  A    between atoms: _263  and  _265
REMARK  104  A    between atoms: _265  and  _266
REMARK  105  A    between atoms: _269  and  _271
REMARK  106  A    between atoms: _271  and  _272
REMARK  107  A    between atoms: _271  and  _274
REMARK  108  A    between atoms: _277  and  _279
REMARK  109  A    between atoms: _279  and  _280
REMARK  110  A    between atoms: _279  and  _282
REMARK  111  A    between atoms: _285  and  _287
REMARK  112  A    between atoms: _287  and  _288
REMARK  113  A    between atoms: _287  and  _290
REMARK  114  A    between atoms: _290  and  _291
REMARK  115  A    between atoms: _294  and  _296
REMARK  116  A    between atoms: _296  and  _297
REMARK  117  A    between atoms: _296  and  _299
REMARK  118  A    between atoms: _299  and  _300
REMARK  119  A    between atoms: _303  and  _305
REMARK  120  A    between atoms: _305  and  _306
REMARK  121  A    between atoms: _305  and  _308
REMARK  122  A    between atoms: _311  and  _313
REMARK  123  A    between atoms: _313  and  _314
REMARK  124  A    between atoms: _313  and  _316
REMARK  125  A    between atoms: _319  and  _321
REMARK  126  A    between atoms: _321  and  _322
REMARK  127  A    between atoms: _325  and  _327
REMARK  128  A    between atoms: _327  and  _328
REMARK  129  A    between atoms: _327  and  _330
REMARK  130  A    between atoms: _330  and  _331
REMARK  131  A    between atoms: _335  and  _336
REMARK  132  A    between atoms: _341  and  _343
REMARK  133  A    between atoms: _343  and  _344
REMARK  134  A    between atoms: _343  and  _346
REMARK  135  A    between atoms: _346  and  _347
REMARK  136  A    between atoms: _350  and  _352
REMARK  137  A    between atoms: _352  and  _353
REMARK  138  A    between atoms: _356  and  _358
REMARK  139  A    between atoms: _358  and  _359
REMARK  140  A    between atoms: _358  and  _361
REMARK  141  A    between atoms: _361  and  _362
REMARK  142  A    between atoms: _367  and  _369
REMARK  143  A    between atoms: _369  and  _370
REMARK  144  A    between atoms: _372  and  _374
REMARK  145  A    between atoms: _374  and  _375
REMARK  146  A    between atoms: _374  and  _377
REMARK  147  A    between atoms: _380  and  _382
REMARK  148  A    between atoms: _382  and  _383
REMARK  149  A    between atoms: _382  and  _385
REMARK  150  A    between atoms: _385  and  _386
REMARK  151  A    between atoms: _389  and  _391
REMARK  152  A    between atoms: _391  and  _392
REMARK  153  A    between atoms: _391  and  _394
REMARK  154  A    between atoms: _394  and  _395
REMARK  155  A    between atoms: _398  and  _400
REMARK  156  A    between atoms: _400  and  _401
REMARK  157  A    between atoms: _400  and  _403
REMARK  158  A    between atoms: _403  and  _404
REMARK  159  A    between atoms: _407  and  _409
REMARK  160  A    between atoms: _409  and  _410
REMARK  161  A    between atoms: _409  and  _412
REMARK  162  A    between atoms: _412  and  _413
REMARK  163  A    between atoms: _418  and  _420
REMARK  164  A    between atoms: _420  and  _421
REMARK  165  A    between atoms: _420  and  _423
REMARK  166  A    between atoms: _423  and  _424
REMARK  167  A    between atoms: _424  and  _425
REMARK  168  A    between atoms: _430  and  _432
REMARK  169  A    between atoms: _432  and  _433
REMARK  170  A    between atoms: _432  and  _435
REMARK  171  A    between atoms: _435  and  _436
REMARK  172  A    between atoms: _439  and  _441
REMARK  173  A    between atoms: _441  and  _442
REMARK  174  A    between atoms: _441  and  _444
REMARK  175  A    between atoms: _444  and  _445
REMARK  176  A    between atoms: _445  and  _446
REMARK  177  A    between atoms: _446  and  _447
REMARK  178  A    between atoms: _456  and  _458
REMARK  179  A    between atoms: _458  and  _459
REMARK  180  A    between atoms: _458  and  _461
REMARK  181  A    between atoms: _461  and  _462
REMARK  182  A    between atoms: _462  and  _463
REMARK  183  A    between atoms: _466  and  _468
REMARK  184  A    between atoms: _468  and  _469
REMARK  185  A    between atoms: _468  and  _471
REMARK  186  A    between atoms: _471  and  _472
REMARK  187  A    between atoms: _472  and  _473
REMARK  188  A    between atoms: _473  and  _474
REMARK  189  A    between atoms: _474  and  _475
REMARK  190  A    between atoms: _479  and  _481
REMARK  191  A    between atoms: _481  and  _482
REMARK  192  A    between atoms: _484  and  _486
REMARK  193  A    between atoms: _486  and  _487
REMARK  194  A    between atoms: _490  and  _492
REMARK  195  A    between atoms: _492  and  _493
REMARK  196  A    between atoms: _492  and  _495
REMARK  197  A    between atoms: _495  and  _496
REMARK  198  A    between atoms: _496  and  _497
REMARK  199  A    between atoms: _502  and  _504
REMARK  200  A    between atoms: _504  and  _505
REMARK  201  A    between atoms: _508  and  _510
REMARK  202  A    between atoms: _510  and  _511
REMARK  203  A    between atoms: _510  and  _513
REMARK  204  A    between atoms: _513  and  _514
REMARK  205  A    between atoms: _517  and  _519
REMARK  206  A    between atoms: _519  and  _520
REMARK  207  A    between atoms: _519  and  _522
REMARK  208  A    between atoms: _525  and  _527
REMARK  209  A    between atoms: _527  and  _528
REMARK  210  A    between atoms: _531  and  _533
REMARK  211  A    between atoms: _533  and  _534
REMARK  212  A    between atoms: _537  and  _539
REMARK  213  A    between atoms: _539  and  _540
REMARK  214  A    between atoms: _539  and  _542
REMARK  215  A    between atoms: _542  and  _543
REMARK                            x       y       z     vdW  Elec       q    Type
REMARK                         _______ _______ _______ _____ _____    ______ ____
ROOT
ATOM      1  CA  TRP A   4     -28.526  -3.775   3.608  0.00  0.00    +0.153 C 
ENDROOT
BRANCH   1   2
ATOM      2  C   TRP A   4     -28.321  -4.370   2.224  0.00  0.00    +0.241 C 
ATOM      3  N   HIS A   5     -27.654  -5.511   2.171  0.00  0.00    -0.298 N 
ATOM      4  H   HIS A   5     -27.210  -5.881   3.036  0.00  0.00    +0.150 HD
ATOM      5  O   TRP A   4     -28.751  -3.788   1.213  0.00  0.00    -0.273 OA
BRANCH   3   6
ATOM      6  CA  HIS A   5     -27.526  -6.265   0.923  0.00  0.00    +0.143 C 
BRANCH   6   7
ATOM      7  C   HIS A   5     -28.527  -7.420   1.007  0.00  0.00    +0.227 C 
ATOM      8  O   HIS A   5     -28.197  -8.522   1.465  0.00  0.00    -0.286 OA
ENDBRANCH   6   7
BRANCH   6   9
ATOM      9  CB  HIS A   5     -26.098  -6.803   0.734  0.00  0.00    +0.075 C 
BRANCH   9  10
ATOM     10  CG  HIS A   5     -25.041  -5.739   0.692  0.00  0.00    +0.082 A 
ATOM     11  CD2 HIS A   5     -24.182  -5.297   1.642  0.00  0.00    +0.115 A 
ATOM     12  NE2 HIS A   5     -23.417  -4.309   1.071  0.00  0.00    -0.221 NA
ATOM     13  CE1 HIS A   5     -23.792  -4.149  -0.185  0.00  0.00    +0.199 A 
ATOM     14  ND1 HIS A   5     -24.765  -5.006  -0.442  0.00  0.00    -0.227 NA
ENDBRANCH   9  10
ENDBRANCH   6   9
ENDBRANCH   3   6
ENDBRANCH   1   2
BRANCH   1  16
ATOM     15  C   SER A   3     -30.317  -5.327   4.180  0.00  0.00    +0.243 C 
ATOM     16  N   TRP A   4     -29.231  -4.656   4.538  0.00  0.00    -0.297 N 
ATOM     17  H   TRP A   4     -28.870  -4.759   5.508  0.00  0.00    +0.150 HD
ATOM     18  O   SER A   3     -30.729  -5.357   3.016  0.00  0.00    -0.273 OA
BRANCH  15  19
ATOM     19  CA  SER A   3     -31.072  -6.078   5.277  0.00  0.00    +0.178 C 
BRANCH  19  21
ATOM     20  C   SER A   2     -29.701  -6.836   7.186  0.00  0.00    +0.243 C 
ATOM     21  N   SER A   3     -30.481  -5.923   6.622  0.00  0.00    -0.295 N 
ATOM     22  H   SER A   3     -30.687  -5.053   7.154  0.00  0.00    +0.150 HD
ATOM     23  O   SER A   2     -29.260  -7.800   6.579  0.00  0.00    -0.273 OA
BRANCH  20  24
ATOM     24  CA  SER A   2     -29.271  -6.588   8.627  0.00  0.00    +0.178 C 
BRANCH  24  27
ATOM     25  C   ALA A   1     -30.310  -8.459   9.768  0.00  0.00    +0.238 C 
ATOM     26  O   ALA A   1     -31.416  -7.940   9.732  0.00  0.00    -0.274 OA
ATOM     27  N   SER A   2     -29.220  -7.869   9.300  0.00  0.00    -0.295 N 
ATOM     28  H   SER A   2     -28.300  -8.340   9.420  0.00  0.00    +0.150 HD
BRANCH  25  29
ATOM     29  CA  ALA A   1     -30.119  -9.825  10.371  0.00  0.00    +0.145 C 
ATOM     30  CB  ALA A   1     -30.700 -10.885   9.443  0.00  0.00    +0.028 C 
BRANCH  29  31
ATOM     31  N   ALA A   1     -30.774  -9.904  11.674  0.00  0.00    -0.238 NA
ATOM     32  H   ALA A   1     -31.784  -9.670  11.751  0.00  0.00    +0.142 HD
ENDBRANCH  29  31
ENDBRANCH  25  29
ENDBRANCH  24  27
BRANCH  24  33
ATOM     33  CB  SER A   2     -27.882  -5.960   8.632  0.00  0.00    +0.166 C 
BRANCH  33  34
ATOM     34  OG  SER A   2     -27.833  -4.893   7.682  0.00  0.00    -0.380 OA
ATOM     35  H   SER A   2     -26.930  -4.488   7.689  0.00  0.00    +0.211 HD
ENDBRANCH  33  34
ENDBRANCH  24  33
ENDBRANCH  20  24
ENDBRANCH  19  21
BRANCH  19  36
ATOM     36  CB  SER A   3     -32.515  -5.541   5.289  0.00  0.00    +0.166 C 
BRANCH  36  37
ATOM     37  OG  SER A   3     -33.240  -6.035   6.392  0.00  0.00    -0.380 OA
ATOM     38  H   SER A   3     -32.794  -5.756   7.230  0.00  0.00    +0.211 HD
ENDBRANCH  36  37
ENDBRANCH  19  36
ENDBRANCH  15  19
ENDBRANCH   1  16
BRANCH   1  39
ATOM     39  CB  TRP A   4     -27.196  -3.342   4.190  0.00  0.00    +0.057 C 
BRANCH  39  40
ATOM     40  CG  TRP A   4     -26.562  -2.236   3.432  0.00  0.00    -0.002 A 
ATOM     41  CD2 TRP A   4     -26.865  -0.844   3.542  0.00  0.00    +0.013 A 
ATOM     42  CE3 TRP A   4     -27.778  -0.105   4.311  0.00  0.00    +0.001 A 
ATOM     43  CZ3 TRP A   4     -27.811   1.271   4.166  0.00  0.00    +0.000 A 
ATOM     44  CH2 TRP A   4     -26.947   1.930   3.268  0.00  0.00    +0.001 A 
ATOM     45  CZ2 TRP A   4     -26.039   1.232   2.500  0.00  0.00    +0.017 A 
ATOM     46  CE2 TRP A   4     -26.012  -0.160   2.645  0.00  0.00    +0.056 A 
ATOM     47  NE1 TRP A   4     -25.231  -1.100   2.021  0.00  0.00    -0.352 N 
ATOM     48  HE1 TRP A   4     -24.502  -0.904   1.306  0.00  0.00    +0.166 HD
ATOM     49  CD1 TRP A   4     -25.572  -2.344   2.498  0.00  0.00    +0.068 A 
ENDBRANCH  39  40
ENDBRANCH   1  39
TORSDOF 18
REMARK  Name = ../refined-set-2016/2c92/2c92_pocket.pdb
REMARK  215 active torsions:
REMARK  status: ('A' for Active; 'I' for Inactive)
REMARK    1  A    between atoms: _1  and  _3
REMARK    2  A    between atoms: _3  and  _4
REMARK    3  A    between atoms: _7  and  _9
REMARK    4  A    between atoms: _9  and  _10
REMARK    5  A    between atoms: _9  and  _12
REMARK    6  A    between atoms: _12  and  _13
REMARK    7  A    between atoms: _15  and  _17
REMARK    8  A    between atoms: _17  and  _18
REMARK    9  A    between atoms: _17  and  _20
REMARK   10  A    between atoms: _20  and  _21
REMARK   11  A    between atoms: _23  and  _25
REMARK   12  A    between atoms: _25  and  _26
REMARK   13  A    between atoms: _25  and  _28
REMARK   14  A    between atoms: _28  and  _29
REMARK   15  A    between atoms: _39  and  _41
REMARK   16  A    between atoms: _41  and  _42
REMARK   17  A    between atoms: _41  and  _44
REMARK   18  A    between atoms: _44  and  _45
REMARK   19  A    between atoms: _50  and  _52
REMARK   20  A    between atoms: _52  and  _53
REMARK   21  A    between atoms: _52  and  _55
REMARK   22  A    between atoms: _57  and  _59
REMARK   23  A    between atoms: _59  and  _60
REMARK   24  A    between atoms: _59  and  _62
REMARK   25  A    between atoms: _65  and  _67
REMARK   26  A    between atoms: _67  and  _68
REMARK   27  A    between atoms: _67  and  _70
REMARK   28  A    between atoms: _70  and  _71
REMARK   29  A    between atoms: _74  and  _76
REMARK   30  A    between atoms: _76  and  _77
REMARK   31  A    between atoms: _79  and  _81
REMARK   32  A    between atoms: _81  and  _82
REMARK   33  A    between atoms: _85  and  _87
REMARK   34  A    between atoms: _87  and  _88
REMARK   35  A    between atoms: _87  and  _90
REMARK   36  A    between atoms: _90  and  _91
REMARK   37  A    between atoms: _94  and  _96
REMARK   38  A    between atoms: _96  and  _97
REMARK   39  A    between atoms: _96  and  _99
REMARK   40  A    between atoms: _99  and  _100
REMARK   41  A    between atoms: _100  and  _101
REMARK   42  A    between atoms: _104  and  _106
REMARK   43  A    between atoms: _106  and  _107
REMARK   44  A    between atoms: _106  and  _109
REMARK   45  A    between atoms: _109  and  _110
REMARK   46  A    between atoms: _113  and  _115
REMARK   47  A    between atoms: _115  and  _116
REMARK   48  A    between atoms: _115  and  _118
REMARK   49  A    between atoms: _118  and  _119
REMARK   50  A    between atoms: _122  and  _124
REMARK   51  A    between atoms: _124  and  _125
REMARK   52  A    between atoms: _127  and  _129
REMARK   53  A    between atoms: _129  and  _130
REMARK   54  A    between atoms: _129  and  _132
REMARK   55  A    between atoms: _135  and  _137
REMARK   56  A    between atoms: _137  and  _138
REMARK   57  A    between atoms: _137  and  _140
REMARK   58  A    between atoms: _143  and  _145
REMARK   59  A    between atoms: _145  and  _146
REMARK   60  A    between atoms: _145  and  _148
REMARK   61  A    between atoms: _148  and  _149
REMARK   62  A    between atoms: _152  and  _154
REMARK   63  A    between atoms: _154  and  _155
REMARK   64  A    between atoms: _154  and  _157
REMARK   65  A    between atoms: _157  and  _158
REMARK   66  A    between atoms: _158  and  _159
REMARK   67  A    between atoms: _159  and  _160
REMARK   68  A    between atoms: _169  and  _171
REMARK   69  A    between atoms: _171  and  _172
REMARK   70  A    between atoms: _174  and  _176
REMARK   71  A    between atoms: _176  and  _177
REMARK   72  A    between atoms: _176  and  _179
REMARK   73  A    between atoms: _179  and  _180
REMARK   74  A    between atoms: _180  and  _181
REMARK   75  A    between atoms: _186  and  _188
REMARK   76  A    between atoms: _188  and  _189
REMARK   77  A    between atoms: _188  and  _191
REMARK   78  A    between atoms: _191  and  _192
REMARK   79  A    between atoms: _196  and  _197
REMARK   80  A    between atoms: _202  and  _204
REMARK   81  A    between atoms: _204  and  _205
REMARK   82  A    between atoms: _204  and  _207
REMARK   83  A    between atoms: _207  and  _208
REMARK   84  A    between atoms: _213  and  _215
REMARK   85  A    between atoms: _215  and  _216
REMARK   86  A    between atoms: _215  and  _218
REMARK   87  A    between atoms: _218  and  _219
REMARK   88  A    between atoms: _225  and  _227
REMARK   89  A    between atoms: _227  and  _228
REMARK   90  A    between atoms: _227  and  _230
REMARK   91  A    between atoms: _230  and  _231
REMARK   92  A    between atoms: _234  and  _236
REMARK   93  A    between atoms: _236  and  _237
REMARK   94  A    between atoms: _236  and  _239
REMARK   95  A    between atoms: _239  and  _240
REMARK   96  A    between atoms: _245  and  _246
REMARK   97  A    between atoms: _248  and  _250
REMARK   98  A    between atoms: _250  and  _251
REMARK   99  A    between atoms: _250  and  _253
REMARK  100  A    between atoms: _256  and  _258
REMARK  101  A    between atoms: _258  and  _259
REMARK  102  A    between atoms: _258  and  _261
REMARK  103  A    between atoms: _263  and  _265
REMARK  104  A    between atoms: _265  and  _266
REMARK  105  A    between atoms: _269  and  _271
REMARK  106  A    between atoms: _271  and  _272
REMARK  107  A    between atoms: _271  and  _274
REMARK  108  A    between atoms: _277  and  _279
REMARK  109  A    between atoms: _279  and  _280
REMARK  110  A    between atoms: _279  and  _282
REMARK  111  A    between atoms: _285  and  _287
REMARK  112  A    between atoms: _287  and  _288
REMARK  113  A    between atoms: _287  and  _290
REMARK  114  A    between atoms: _290  and  _291
REMARK  115  A    between atoms: _294  and  _296
REMARK  116  A    between atoms: _296  and  _297
REMARK  117  A    between atoms: _296  and  _299
REMARK  118  A    between atoms: _299  and  _300
REMARK  119  A    between atoms: _303  and  _305
REMARK  120  A    between atoms: _305  and  _306
REMARK  121  A    between atoms: _305  and  _308
REMARK  122  A    between atoms: _311  and  _313
REMARK  123  A    between atoms: _313  and  _314
REMARK  124  A    between atoms: _313  and  _316
REMARK  125  A    between atoms: _319  and  _321
REMARK  126  A    between atoms: _321  and  _322
REMARK  127  A    between atoms: _325  and  _327
REMARK  128  A    between atoms: _327  and  _328
REMARK  129  A    between atoms: _327  and  _330
REMARK  130  A    between atoms: _330  and  _331
REMARK  131  A    between atoms: _335  and  _336
REMARK  132  A    between atoms: _341  and  _343
REMARK  133  A    between atoms: _343  and  _344
REMARK  134  A    between atoms: _343  and  _346
REMARK  135  A    between atoms: _346  and  _347
REMARK  136  A    between atoms: _350  and  _352
REMARK  137  A    between atoms: _352  and  _353
REMARK  138  A    between atoms: _356  and  _358
REMARK  139  A    between atoms: _358  and  _359
REMARK  140  A    between atoms: _358  and  _361
REMARK  141  A    between atoms: _361  and  _362
REMARK  142  A    between atoms: _367  and  _369
REMARK  143  A    between atoms: _369  and  _370
REMARK  144  A    between atoms: _372  and  _374
REMARK  145  A    between atoms: _374  and  _375
REMARK  146  A    between atoms: _374  and  _377
REMARK  147  A    between atoms: _380  and  _382
REMARK  148  A    between atoms: _382  and  _383
REMARK  149  A    between atoms: _382  and  _385
REMARK  150  A    between atoms: _385  and  _386
REMARK  151  A    between atoms: _389  and  _391
REMARK  152  A    between atoms: _391  and  _392
REMARK  153  A    between atoms: _391  and  _394
REMARK  154  A    between atoms: _394  and  _395
REMARK  155  A    between atoms: _398  and  _400
REMARK  156  A    between atoms: _400  and  _401
REMARK  157  A    between atoms: _400  and  _403
REMARK  158  A    between atoms: _403  and  _404
REMARK  159  A    between atoms: _407  and  _409
REMARK  160  A    between atoms: _409  and  _410
REMARK  161  A    between atoms: _409  and  _412
REMARK  162  A    between atoms: _412  and  _413
REMARK  163  A    between atoms: _418  and  _420
REMARK  164  A    between atoms: _420  and  _421
REMARK  165  A    between atoms: _420  and  _423
REMARK  166  A    between atoms: _423  and  _424
REMARK  167  A    between atoms: _424  and  _425
REMARK  168  A    between atoms: _430  and  _432
REMARK  169  A    between atoms: _432  and  _433
REMARK  170  A    between atoms: _432  and  _435
REMARK  171  A    between atoms: _435  and  _436
REMARK  172  A    between atoms: _439  and  _441
REMARK  173  A    between atoms: _441  and  _442
REMARK  174  A    between atoms: _441  and  _444
REMARK  175  A    between atoms: _444  and  _445
REMARK  176  A    between atoms: _445  and  _446
REMARK  177  A    between atoms: _446  and  _447
REMARK  178  A    between atoms: _456  and  _458
REMARK  179  A    between atoms: _458  and  _459
REMARK  180  A    between atoms: _458  and  _461
REMARK  181  A    between atoms: _461  and  _462
REMARK  182  A    between atoms: _462  and  _463
REMARK  183  A    between atoms: _466  and  _468
REMARK  184  A    between atoms: _468  and  _469
REMARK  185  A    between atoms: _468  and  _471
REMARK  186  A    between atoms: _471  and  _472
REMARK  187  A    between atoms: _472  and  _473
REMARK  188  A    between atoms: _473  and  _474
REMARK  189  A    between atoms: _474  and  _475
REMARK  190  A    between atoms: _479  and  _481
REMARK  191  A    between atoms: _481  and  _482
REMARK  192  A    between atoms: _484  and  _486
REMARK  193  A    between atoms: _486  and  _487
REMARK  194  A    between atoms: _490  and  _492
REMARK  195  A    between atoms: _492  and  _493
REMARK  196  A    between atoms: _492  and  _495
REMARK  197  A    between atoms: _495  and  _496
REMARK  198  A    between atoms: _496  and  _497
REMARK  199  A    between atoms: _502  and  _504
REMARK  200  A    between atoms: _504  and  _505
REMARK  201  A    between atoms: _508  and  _510
REMARK  202  A    between atoms: _510  and  _511
REMARK  203  A    between atoms: _510  and  _513
REMARK  204  A    between atoms: _513  and  _514
REMARK  205  A    between atoms: _517  and  _519
REMARK  206  A    between atoms: _519  and  _520
REMARK  207  A    between atoms: _519  and  _522
REMARK  208  A    between atoms: _525  and  _527
REMARK  209  A    between atoms: _527  and  _528
REMARK  210  A    between atoms: _531  and  _533
REMARK  211  A    between atoms: _533  and  _534
REMARK  212  A    between atoms: _537  and  _539
REMARK  213  A    between atoms: _539  and  _540
REMARK  214  A    between atoms: _539  and  _542
REMARK  215  A    between atoms: _542  and  _543
REMARK                            x       y       z     vdW  Elec       q    Type
REMARK                         _______ _______ _______ _____ _____    ______ ____
ROOT
ATOM      1  CA  CYS A   1     -28.731 -11.164   3.990  0.00  0.00    +0.145 C 
ENDROOT
BRANCH   1   2
ATOM      2  N   CYS A   1     -28.194 -11.048   2.639  0.00  0.00    -0.238 NA
ATOM      3  H   CYS A   1     -28.339 -10.175   2.093  0.00  0.00    +0.142 HD
ENDBRANCH   1   2
BRANCH   1   4
ATOM      4  CB  CYS A   1     -29.222  -9.798   4.477  0.00  0.00    +0.094 C 
ATOM      5  SG  CYS A   1     -27.894  -8.502   4.630  0.00  0.00    -0.080 S 
ENDBRANCH   1   4
BRANCH   1   6
ATOM      6  C   CYS A   1     -29.810 -12.255   4.065  0.00  0.00    +0.225 C 
ATOM      7  O   CYS A   1     -29.813 -13.087   4.991  0.00  0.00    -0.287 OA
ENDBRANCH   1   6
TORSDOF 3
REMARK  Name = ../refined-set-2016/2c92/2c92_pocket.pdb
REMARK  215 active torsions:
REMARK  status: ('A' for Active; 'I' for Inactive)
REMARK    1  A    between atoms: _1  and  _3
REMARK    2  A    between atoms: _3  and  _4
REMARK    3  A    between atoms: _7  and  _9
REMARK    4  A    between atoms: _9  and  _10
REMARK    5  A    between atoms: _9  and  _12
REMARK    6  A    between atoms: _12  and  _13
REMARK    7  A    between atoms: _15  and  _17
REMARK    8  A    between atoms: _17  and  _18
REMARK    9  A    between atoms: _17  and  _20
REMARK   10  A    between atoms: _20  and  _21
REMARK   11  A    between atoms: _23  and  _25
REMARK   12  A    between atoms: _25  and  _26
REMARK   13  A    between atoms: _25  and  _28
REMARK   14  A    between atoms: _28  and  _29
REMARK   15  A    between atoms: _39  and  _41
REMARK   16  A    between atoms: _41  and  _42
REMARK   17  A    between atoms: _41  and  _44
REMARK   18  A    between atoms: _44  and  _45
REMARK   19  A    between atoms: _50  and  _52
REMARK   20  A    between atoms: _52  and  _53
REMARK   21  A    between atoms: _52  and  _55
REMARK   22  A    between atoms: _57  and  _59
REMARK   23  A    between atoms: _59  and  _60
REMARK   24  A    between atoms: _59  and  _62
REMARK   25  A    between atoms: _65  and  _67
REMARK   26  A    between atoms: _67  and  _68
REMARK   27  A    between atoms: _67  and  _70
REMARK   28  A    between atoms: _70  and  _71
REMARK   29  A    between atoms: _74  and  _76
REMARK   30  A    between atoms: _76  and  _77
REMARK   31  A    between atoms: _79  and  _81
REMARK   32  A    between atoms: _81  and  _82
REMARK   33  A    between atoms: _85  and  _87
REMARK   34  A    between atoms: _87  and  _88
REMARK   35  A    between atoms: _87  and  _90
REMARK   36  A    between atoms: _90  and  _91
REMARK   37  A    between atoms: _94  and  _96
REMARK   38  A    between atoms: _96  and  _97
REMARK   39  A    between atoms: _96  and  _99
REMARK   40  A    between atoms: _99  and  _100
REMARK   41  A    between atoms: _100  and  _101
REMARK   42  A    between atoms: _104  and  _106
REMARK   43  A    between atoms: _106  and  _107
REMARK   44  A    between atoms: _106  and  _109
REMARK   45  A    between atoms: _109  and  _110
REMARK   46  A    between atoms: _113  and  _115
REMARK   47  A    between atoms: _115  and  _116
REMARK   48  A    between atoms: _115  and  _118
REMARK   49  A    between atoms: _118  and  _119
REMARK   50  A    between atoms: _122  and  _124
REMARK   51  A    between atoms: _124  and  _125
REMARK   52  A    between atoms: _127  and  _129
REMARK   53  A    between atoms: _129  and  _130
REMARK   54  A    between atoms: _129  and  _132
REMARK   55  A    between atoms: _135  and  _137
REMARK   56  A    between atoms: _137  and  _138
REMARK   57  A    between atoms: _137  and  _140
REMARK   58  A    between atoms: _143  and  _145
REMARK   59  A    between atoms: _145  and  _146
REMARK   60  A    between atoms: _145  and  _148
REMARK   61  A    between atoms: _148  and  _149
REMARK   62  A    between atoms: _152  and  _154
REMARK   63  A    between atoms: _154  and  _155
REMARK   64  A    between atoms: _154  and  _157
REMARK   65  A    between atoms: _157  and  _158
REMARK   66  A    between atoms: _158  and  _159
REMARK   67  A    between atoms: _159  and  _160
REMARK   68  A    between atoms: _169  and  _171
REMARK   69  A    between atoms: _171  and  _172
REMARK   70  A    between atoms: _174  and  _176
REMARK   71  A    between atoms: _176  and  _177
REMARK   72  A    between atoms: _176  and  _179
REMARK   73  A    between atoms: _179  and  _180
REMARK   74  A    between atoms: _180  and  _181
REMARK   75  A    between atoms: _186  and  _188
REMARK   76  A    between atoms: _188  and  _189
REMARK   77  A    between atoms: _188  and  _191
REMARK   78  A    between atoms: _191  and  _192
REMARK   79  A    between atoms: _196  and  _197
REMARK   80  A    between atoms: _202  and  _204
REMARK   81  A    between atoms: _204  and  _205
REMARK   82  A    between atoms: _204  and  _207
REMARK   83  A    between atoms: _207  and  _208
REMARK   84  A    between atoms: _213  and  _215
REMARK   85  A    between atoms: _215  and  _216
REMARK   86  A    between atoms: _215  and  _218
REMARK   87  A    between atoms: _218  and  _219
REMARK   88  A    between atoms: _225  and  _227
REMARK   89  A    between atoms: _227  and  _228
REMARK   90  A    between atoms: _227  and  _230
REMARK   91  A    between atoms: _230  and  _231
REMARK   92  A    between atoms: _234  and  _236
REMARK   93  A    between atoms: _236  and  _237
REMARK   94  A    between atoms: _236  and  _239
REMARK   95  A    between atoms: _239  and  _240
REMARK   96  A    between atoms: _245  and  _246
REMARK   97  A    between atoms: _248  and  _250
REMARK   98  A    between atoms: _250  and  _251
REMARK   99  A    between atoms: _250  and  _253
REMARK  100  A    between atoms: _256  and  _258
REMARK  101  A    between atoms: _258  and  _259
REMARK  102  A    between atoms: _258  and  _261
REMARK  103  A    between atoms: _263  and  _265
REMARK  104  A    between atoms: _265  and  _266
REMARK  105  A    between atoms: _269  and  _271
REMARK  106  A    between atoms: _271  and  _272
REMARK  107  A    between atoms: _271  and  _274
REMARK  108  A    between atoms: _277  and  _279
REMARK  109  A    between atoms: _279  and  _280
REMARK  110  A    between atoms: _279  and  _282
REMARK  111  A    between atoms: _285  and  _287
REMARK  112  A    between atoms: _287  and  _288
REMARK  113  A    between atoms: _287  and  _290
REMARK  114  A    between atoms: _290  and  _291
REMARK  115  A    between atoms: _294  and  _296
REMARK  116  A    between atoms: _296  and  _297
REMARK  117  A    between atoms: _296  and  _299
REMARK  118  A    between atoms: _299  and  _300
REMARK  119  A    between atoms: _303  and  _305
REMARK  120  A    between atoms: _305  and  _306
REMARK  121  A    between atoms: _305  and  _308
REMARK  122  A    between atoms: _311  and  _313
REMARK  123  A    between atoms: _313  and  _314
REMARK  124  A    between atoms: _313  and  _316
REMARK  125  A    between atoms: _319  and  _321
REMARK  126  A    between atoms: _321  and  _322
REMARK  127  A    between atoms: _325  and  _327
REMARK  128  A    between atoms: _327  and  _328
REMARK  129  A    between atoms: _327  and  _330
REMARK  130  A    between atoms: _330  and  _331
REMARK  131  A    between atoms: _335  and  _336
REMARK  132  A    between atoms: _341  and  _343
REMARK  133  A    between atoms: _343  and  _344
REMARK  134  A    between atoms: _343  and  _346
REMARK  135  A    between atoms: _346  and  _347
REMARK  136  A    between atoms: _350  and  _352
REMARK  137  A    between atoms: _352  and  _353
REMARK  138  A    between atoms: _356  and  _358
REMARK  139  A    between atoms: _358  and  _359
REMARK  140  A    between atoms: _358  and  _361
REMARK  141  A    between atoms: _361  and  _362
REMARK  142  A    between atoms: _367  and  _369
REMARK  143  A    between atoms: _369  and  _370
REMARK  144  A    between atoms: _372  and  _374
REMARK  145  A    between atoms: _374  and  _375
REMARK  146  A    between atoms: _374  and  _377
REMARK  147  A    between atoms: _380  and  _382
REMARK  148  A    between atoms: _382  and  _383
REMARK  149  A    between atoms: _382  and  _385
REMARK  150  A    between atoms: _385  and  _386
REMARK  151  A    between atoms: _389  and  _391
REMARK  152  A    between atoms: _391  and  _392
REMARK  153  A    between atoms: _391  and  _394
REMARK  154  A    between atoms: _394  and  _395
REMARK  155  A    between atoms: _398  and  _400
REMARK  156  A    between atoms: _400  and  _401
REMARK  157  A    between atoms: _400  and  _403
REMARK  158  A    between atoms: _403  and  _404
REMARK  159  A    between atoms: _407  and  _409
REMARK  160  A    between atoms: _409  and  _410
REMARK  161  A    between atoms: _409  and  _412
REMARK  162  A    between atoms: _412  and  _413
REMARK  163  A    between atoms: _418  and  _420
REMARK  164  A    between atoms: _420  and  _421
REMARK  165  A    between atoms: _420  and  _423
REMARK  166  A    between atoms: _423  and  _424
REMARK  167  A    between atoms: _424  and  _425
REMARK  168  A    between atoms: _430  and  _432
REMARK  169  A    between atoms: _432  and  _433
REMARK  170  A    between atoms: _432  and  _435
REMARK  171  A    between atoms: _435  and  _436
REMARK  172  A    between atoms: _439  and  _441
REMARK  173  A    between atoms: _441  and  _442
REMARK  174  A    between atoms: _441  and  _444
REMARK  175  A    between atoms: _444  and  _445
REMARK  176  A    between atoms: _445  and  _446
REMARK  177  A    between atoms: _446  and  _447
REMARK  178  A    between atoms: _456  and  _458
REMARK  179  A    between atoms: _458  and  _459
REMARK  180  A    between atoms: _458  and  _461
REMARK  181  A    between atoms: _461  and  _462
REMARK  182  A    between atoms: _462  and  _463
REMARK  183  A    between atoms: _466  and  _468
REMARK  184  A    between atoms: _468  and  _469
REMARK  185  A    between atoms: _468  and  _471
REMARK  186  A    between atoms: _471  and  _472
REMARK  187  A    between atoms: _472  and  _473
REMARK  188  A    between atoms: _473  and  _474
REMARK  189  A    between atoms: _474  and  _475
REMARK  190  A    between atoms: _479  and  _481
REMARK  191  A    between atoms: _481  and  _482
REMARK  192  A    between atoms: _484  and  _486
REMARK  193  A    between atoms: _486  and  _487
REMARK  194  A    between atoms: _490  and  _492
REMARK  195  A    between atoms: _492  and  _493
REMARK  196  A    between atoms: _492  and  _495
REMARK  197  A    between atoms: _495  and  _496
REMARK  198  A    between atoms: _496  and  _497
REMARK  199  A    between atoms: _502  and  _504
REMARK  200  A    between atoms: _504  and  _505
REMARK  201  A    between atoms: _508  and  _510
REMARK  202  A    between atoms: _510  and  _511
REMARK  203  A    between atoms: _510  and  _513
REMARK  204  A    between atoms: _513  and  _514
REMARK  205  A    between atoms: _517  and  _519
REMARK  206  A    between atoms: _519  and  _520
REMARK  207  A    between atoms: _519  and  _522
REMARK  208  A    between atoms: _525  and  _527
REMARK  209  A    between atoms: _527  and  _528
REMARK  210  A    between atoms: _531  and  _533
REMARK  211  A    between atoms: _533  and  _534
REMARK  212  A    between atoms: _537  and  _539
REMARK  213  A    between atoms: _539  and  _540
REMARK  214  A    between atoms: _539  and  _542
REMARK  215  A    between atoms: _542  and  _543
REMARK                            x       y       z     vdW  Elec       q    Type
REMARK                         _______ _______ _______ _____ _____    ______ ____
ROOT
ATOM      1  C   ALA A   4     -24.972  -2.841  11.795  0.00  0.00    +0.241 C 
ATOM      2  O   ALA A   4     -24.934  -3.388  12.911  0.00  0.00    -0.273 OA
ATOM      3  N   ILE A   5     -24.955  -1.527  11.648  0.00  0.00    -0.297 N 
ATOM      4  H   ILE A   5     -25.064  -1.102  10.705  0.00  0.00    +0.150 HD
ENDROOT
BRANCH   1   5
ATOM      5  CA  ALA A   4     -25.103  -3.674  10.517  0.00  0.00    +0.149 C 
ATOM      6  CB  ALA A   4     -23.728  -3.951   9.935  0.00  0.00    +0.031 C 
BRANCH   5   9
ATOM      7  C   GLY A   3     -27.181  -2.619   9.763  0.00  0.00    +0.243 C 
ATOM      8  O   GLY A   3     -27.744  -2.783  10.842  0.00  0.00    -0.273 OA
ATOM      9  N   ALA A   4     -25.928  -2.996   9.514  0.00  0.00    -0.297 N 
ATOM     10  H   ALA A   4     -25.522  -2.803   8.576  0.00  0.00    +0.150 HD
BRANCH   7  11
ATOM     11  CA  GLY A   3     -27.895  -1.937   8.620  0.00  0.00    +0.176 C 
BRANCH  11  13
ATOM     12  C   LEU A   2     -30.177  -2.278   7.898  0.00  0.00    +0.241 C 
ATOM     13  N   GLY A   3     -29.330  -1.816   8.809  0.00  0.00    -0.295 N 
ATOM     14  H   GLY A   3     -29.698  -1.362   9.669  0.00  0.00    +0.150 HD
ATOM     15  O   LEU A   2     -29.795  -2.923   6.910  0.00  0.00    -0.273 OA
BRANCH  12  16
ATOM     16  CA  LEU A   2     -31.678  -2.050   8.145  0.00  0.00    +0.149 C 
BRANCH  16  18
ATOM     17  C   VAL A   1     -32.193  -3.899   9.589  0.00  0.00    +0.238 C 
ATOM     18  N   LEU A   2     -32.114  -2.593   9.428  0.00  0.00    -0.297 N 
ATOM     19  H   LEU A   2     -32.361  -1.954  10.210  0.00  0.00    +0.150 HD
ATOM     20  O   VAL A   1     -31.859  -4.698   8.729  0.00  0.00    -0.274 OA
BRANCH  17  21
ATOM     21  CA  VAL A   1     -32.708  -4.385  10.930  0.00  0.00    +0.145 C 
BRANCH  21  22
ATOM     22  CB  VAL A   1     -31.670  -4.161  12.064  0.00  0.00    +0.025 C 
ATOM     23  CG2 VAL A   1     -32.308  -4.533  13.400  0.00  0.00    +0.002 C 
ATOM     24  CG1 VAL A   1     -30.375  -4.974  11.841  0.00  0.00    +0.002 C 
ENDBRANCH  21  22
BRANCH  21  25
ATOM     25  N   VAL A   1     -33.080  -5.765  10.765  0.00  0.00    -0.238 NA
ATOM     26  H   VAL A   1     -32.374  -6.437  10.402  0.00  0.00    +0.142 HD
ENDBRANCH  21  25
ENDBRANCH  17  21
ENDBRANCH  16  18
BRANCH  16  27
ATOM     27  CB  LEU A   2     -32.083  -0.581   8.044  0.00  0.00    +0.029 C 
BRANCH  27  28
ATOM     28  CG  LEU A   2     -32.180  -0.049   6.618  0.00  0.00    +0.002 C 
ATOM     29  CD2 LEU A   2     -32.345   1.434   6.709  0.00  0.00    +0.000 C 
ATOM     30  CD1 LEU A   2     -33.390  -0.674   5.912  0.00  0.00    +0.000 C 
ENDBRANCH  27  28
ENDBRANCH  16  27
ENDBRANCH  12  16
ENDBRANCH  11  13
ENDBRANCH   7  11
ENDBRANCH   5   9
ENDBRANCH   1   5
BRANCH   3  31
ATOM     31  CA  ILE A   5     -24.781  -0.677  12.826  0.00  0.00    +0.149 C 
BRANCH  31  32
ATOM     32  C   ILE A   5     -25.949  -0.820  13.793  0.00  0.00    +0.241 C 
ATOM     33  O   ILE A   5     -25.778  -0.625  14.989  0.00  0.00    -0.273 OA
ATOM     34  N   GLU A   6     -27.128  -1.177  13.271  0.00  0.00    -0.297 N 
ATOM     35  H   GLU A   6     -27.205  -1.353  12.249  0.00  0.00    +0.150 HD
BRANCH  34  36
ATOM     36  CA  GLU A   6     -28.317  -1.323  14.125  0.00  0.00    +0.149 C 
BRANCH  36  37
ATOM     37  C   GLU A   6     -28.367  -2.675  14.855  0.00  0.00    +0.241 C 
ATOM     38  O   GLU A   6     -29.184  -2.871  15.764  0.00  0.00    -0.273 OA
ATOM     39  N   ILE A   7     -27.487  -3.594  14.468  0.00  0.00    -0.298 N 
ATOM     40  H   ILE A   7     -26.791  -3.363  13.731  0.00  0.00    +0.150 HD
BRANCH  39  41
ATOM     41  CA  ILE A   7     -27.490  -4.914  15.064  0.00  0.00    +0.137 C 
BRANCH  41  42
ATOM     42  CB  ILE A   7     -26.543  -5.887  14.346  0.00  0.00    +0.026 C 
ATOM     43  CG2 ILE A   7     -26.457  -7.240  15.124  0.00  0.00    +0.002 C 
BRANCH  42  44
ATOM     44  CG1 ILE A   7     -27.016  -6.124  12.906  0.00  0.00    +0.002 C 
ATOM     45  CD1 ILE A   7     -26.023  -6.914  12.054  0.00  0.00    +0.000 C 
ENDBRANCH  42  44
ENDBRANCH  41  42
BRANCH  41  46
ATOM     46  C   ILE A   7     -27.257  -4.926  16.591  0.00  0.00    +0.227 C 
ATOM     47  O   ILE A   7     -28.063  -5.523  17.305  0.00  0.00    -0.286 OA
ENDBRANCH  41  46
ENDBRANCH  39  41
ENDBRANCH  36  37
BRANCH  36  48
ATOM     48  CB  GLU A   6     -29.579  -1.140  13.281  0.00  0.00    +0.041 C 
BRANCH  48  49
ATOM     49  CG  GLU A   6     -29.868   0.294  12.828  0.00  0.00    +0.116 C 
BRANCH  49  50
ATOM     50  CD  GLU A   6     -28.796   0.870  11.916  0.00  0.00    +0.365 C 
ATOM     51  OE2 GLU A   6     -28.175   1.879  12.289  0.00  0.00    -0.246 OA
ATOM     52  OE1 GLU A   6     -28.593   0.309  10.830  0.00  0.00    -0.246 OA
ENDBRANCH  49  50
ENDBRANCH  48  49
ENDBRANCH  36  48
ENDBRANCH  34  36
ENDBRANCH  31  32
BRANCH  31  53
ATOM     53  CB  ILE A   5     -24.517   0.781  12.443  0.00  0.00    +0.027 C 
ATOM     54  CG2 ILE A   5     -24.667   1.693  13.654  0.00  0.00    +0.002 C 
BRANCH  53  55
ATOM     55  CG1 ILE A   5     -23.101   0.865  11.862  0.00  0.00    +0.002 C 
ATOM     56  CD1 ILE A   5     -22.592   2.261  11.615  0.00  0.00    +0.000 C 
ENDBRANCH  53  55
ENDBRANCH  31  53
ENDBRANCH   3  31
TORSDOF 24
REMARK  Name = ../refined-set-2016/2c92/2c92_pocket.pdb
REMARK  215 active torsions:
REMARK  status: ('A' for Active; 'I' for Inactive)
REMARK    1  A    between atoms: _1  and  _3
REMARK    2  A    between atoms: _3  and  _4
REMARK    3  A    between atoms: _7  and  _9
REMARK    4  A    between atoms: _9  and  _10
REMARK    5  A    between atoms: _9  and  _12
REMARK    6  A    between atoms: _12  and  _13
REMARK    7  A    between atoms: _15  and  _17
REMARK    8  A    between atoms: _17  and  _18
REMARK    9  A    between atoms: _17  and  _20
REMARK   10  A    between atoms: _20  and  _21
REMARK   11  A    between atoms: _23  and  _25
REMARK   12  A    between atoms: _25  and  _26
REMARK   13  A    between atoms: _25  and  _28
REMARK   14  A    between atoms: _28  and  _29
REMARK   15  A    between atoms: _39  and  _41
REMARK   16  A    between atoms: _41  and  _42
REMARK   17  A    between atoms: _41  and  _44
REMARK   18  A    between atoms: _44  and  _45
REMARK   19  A    between atoms: _50  and  _52
REMARK   20  A    between atoms: _52  and  _53
REMARK   21  A    between atoms: _52  and  _55
REMARK   22  A    between atoms: _57  and  _59
REMARK   23  A    between atoms: _59  and  _60
REMARK   24  A    between atoms: _59  and  _62
REMARK   25  A    between atoms: _65  and  _67
REMARK   26  A    between atoms: _67  and  _68
REMARK   27  A    between atoms: _67  and  _70
REMARK   28  A    between atoms: _70  and  _71
REMARK   29  A    between atoms: _74  and  _76
REMARK   30  A    between atoms: _76  and  _77
REMARK   31  A    between atoms: _79  and  _81
REMARK   32  A    between atoms: _81  and  _82
REMARK   33  A    between atoms: _85  and  _87
REMARK   34  A    between atoms: _87  and  _88
REMARK   35  A    between atoms: _87  and  _90
REMARK   36  A    between atoms: _90  and  _91
REMARK   37  A    between atoms: _94  and  _96
REMARK   38  A    between atoms: _96  and  _97
REMARK   39  A    between atoms: _96  and  _99
REMARK   40  A    between atoms: _99  and  _100
REMARK   41  A    between atoms: _100  and  _101
REMARK   42  A    between atoms: _104  and  _106
REMARK   43  A    between atoms: _106  and  _107
REMARK   44  A    between atoms: _106  and  _109
REMARK   45  A    between atoms: _109  and  _110
REMARK   46  A    between atoms: _113  and  _115
REMARK   47  A    between atoms: _115  and  _116
REMARK   48  A    between atoms: _115  and  _118
REMARK   49  A    between atoms: _118  and  _119
REMARK   50  A    between atoms: _122  and  _124
REMARK   51  A    between atoms: _124  and  _125
REMARK   52  A    between atoms: _127  and  _129
REMARK   53  A    between atoms: _129  and  _130
REMARK   54  A    between atoms: _129  and  _132
REMARK   55  A    between atoms: _135  and  _137
REMARK   56  A    between atoms: _137  and  _138
REMARK   57  A    between atoms: _137  and  _140
REMARK   58  A    between atoms: _143  and  _145
REMARK   59  A    between atoms: _145  and  _146
REMARK   60  A    between atoms: _145  and  _148
REMARK   61  A    between atoms: _148  and  _149
REMARK   62  A    between atoms: _152  and  _154
REMARK   63  A    between atoms: _154  and  _155
REMARK   64  A    between atoms: _154  and  _157
REMARK   65  A    between atoms: _157  and  _158
REMARK   66  A    between atoms: _158  and  _159
REMARK   67  A    between atoms: _159  and  _160
REMARK   68  A    between atoms: _169  and  _171
REMARK   69  A    between atoms: _171  and  _172
REMARK   70  A    between atoms: _174  and  _176
REMARK   71  A    between atoms: _176  and  _177
REMARK   72  A    between atoms: _176  and  _179
REMARK   73  A    between atoms: _179  and  _180
REMARK   74  A    between atoms: _180  and  _181
REMARK   75  A    between atoms: _186  and  _188
REMARK   76  A    between atoms: _188  and  _189
REMARK   77  A    between atoms: _188  and  _191
REMARK   78  A    between atoms: _191  and  _192
REMARK   79  A    between atoms: _196  and  _197
REMARK   80  A    between atoms: _202  and  _204
REMARK   81  A    between atoms: _204  and  _205
REMARK   82  A    between atoms: _204  and  _207
REMARK   83  A    between atoms: _207  and  _208
REMARK   84  A    between atoms: _213  and  _215
REMARK   85  A    between atoms: _215  and  _216
REMARK   86  A    between atoms: _215  and  _218
REMARK   87  A    between atoms: _218  and  _219
REMARK   88  A    between atoms: _225  and  _227
REMARK   89  A    between atoms: _227  and  _228
REMARK   90  A    between atoms: _227  and  _230
REMARK   91  A    between atoms: _230  and  _231
REMARK   92  A    between atoms: _234  and  _236
REMARK   93  A    between atoms: _236  and  _237
REMARK   94  A    between atoms: _236  and  _239
REMARK   95  A    between atoms: _239  and  _240
REMARK   96  A    between atoms: _245  and  _246
REMARK   97  A    between atoms: _248  and  _250
REMARK   98  A    between atoms: _250  and  _251
REMARK   99  A    between atoms: _250  and  _253
REMARK  100  A    between atoms: _256  and  _258
REMARK  101  A    between atoms: _258  and  _259
REMARK  102  A    between atoms: _258  and  _261
REMARK  103  A    between atoms: _263  and  _265
REMARK  104  A    between atoms: _265  and  _266
REMARK  105  A    between atoms: _269  and  _271
REMARK  106  A    between atoms: _271  and  _272
REMARK  107  A    between atoms: _271  and  _274
REMARK  108  A    between atoms: _277  and  _279
REMARK  109  A    between atoms: _279  and  _280
REMARK  110  A    between atoms: _279  and  _282
REMARK  111  A    between atoms: _285  and  _287
REMARK  112  A    between atoms: _287  and  _288
REMARK  113  A    between atoms: _287  and  _290
REMARK  114  A    between atoms: _290  and  _291
REMARK  115  A    between atoms: _294  and  _296
REMARK  116  A    between atoms: _296  and  _297
REMARK  117  A    between atoms: _296  and  _299
REMARK  118  A    between atoms: _299  and  _300
REMARK  119  A    between atoms: _303  and  _305
REMARK  120  A    between atoms: _305  and  _306
REMARK  121  A    between atoms: _305  and  _308
REMARK  122  A    between atoms: _311  and  _313
REMARK  123  A    between atoms: _313  and  _314
REMARK  124  A    between atoms: _313  and  _316
REMARK  125  A    between atoms: _319  and  _321
REMARK  126  A    between atoms: _321  and  _322
REMARK  127  A    between atoms: _325  and  _327
REMARK  128  A    between atoms: _327  and  _328
REMARK  129  A    between atoms: _327  and  _330
REMARK  130  A    between atoms: _330  and  _331
REMARK  131  A    between atoms: _335  and  _336
REMARK  132  A    between atoms: _341  and  _343
REMARK  133  A    between atoms: _343  and  _344
REMARK  134  A    between atoms: _343  and  _346
REMARK  135  A    between atoms: _346  and  _347
REMARK  136  A    between atoms: _350  and  _352
REMARK  137  A    between atoms: _352  and  _353
REMARK  138  A    between atoms: _356  and  _358
REMARK  139  A    between atoms: _358  and  _359
REMARK  140  A    between atoms: _358  and  _361
REMARK  141  A    between atoms: _361  and  _362
REMARK  142  A    between atoms: _367  and  _369
REMARK  143  A    between atoms: _369  and  _370
REMARK  144  A    between atoms: _372  and  _374
REMARK  145  A    between atoms: _374  and  _375
REMARK  146  A    between atoms: _374  and  _377
REMARK  147  A    between atoms: _380  and  _382
REMARK  148  A    between atoms: _382  and  _383
REMARK  149  A    between atoms: _382  and  _385
REMARK  150  A    between atoms: _385  and  _386
REMARK  151  A    between atoms: _389  and  _391
REMARK  152  A    between atoms: _391  and  _392
REMARK  153  A    between atoms: _391  and  _394
REMARK  154  A    between atoms: _394  and  _395
REMARK  155  A    between atoms: _398  and  _400
REMARK  156  A    between atoms: _400  and  _401
REMARK  157  A    between atoms: _400  and  _403
REMARK  158  A    between atoms: _403  and  _404
REMARK  159  A    between atoms: _407  and  _409
REMARK  160  A    between atoms: _409  and  _410
REMARK  161  A    between atoms: _409  and  _412
REMARK  162  A    between atoms: _412  and  _413
REMARK  163  A    between atoms: _418  and  _420
REMARK  164  A    between atoms: _420  and  _421
REMARK  165  A    between atoms: _420  and  _423
REMARK  166  A    between atoms: _423  and  _424
REMARK  167  A    between atoms: _424  and  _425
REMARK  168  A    between atoms: _430  and  _432
REMARK  169  A    between atoms: _432  and  _433
REMARK  170  A    between atoms: _432  and  _435
REMARK  171  A    between atoms: _435  and  _436
REMARK  172  A    between atoms: _439  and  _441
REMARK  173  A    between atoms: _441  and  _442
REMARK  174  A    between atoms: _441  and  _444
REMARK  175  A    between atoms: _444  and  _445
REMARK  176  A    between atoms: _445  and  _446
REMARK  177  A    between atoms: _446  and  _447
REMARK  178  A    between atoms: _456  and  _458
REMARK  179  A    between atoms: _458  and  _459
REMARK  180  A    between atoms: _458  and  _461
REMARK  181  A    between atoms: _461  and  _462
REMARK  182  A    between atoms: _462  and  _463
REMARK  183  A    between atoms: _466  and  _468
REMARK  184  A    between atoms: _468  and  _469
REMARK  185  A    between atoms: _468  and  _471
REMARK  186  A    between atoms: _471  and  _472
REMARK  187  A    between atoms: _472  and  _473
REMARK  188  A    between atoms: _473  and  _474
REMARK  189  A    between atoms: _474  and  _475
REMARK  190  A    between atoms: _479  and  _481
REMARK  191  A    between atoms: _481  and  _482
REMARK  192  A    between atoms: _484  and  _486
REMARK  193  A    between atoms: _486  and  _487
REMARK  194  A    between atoms: _490  and  _492
REMARK  195  A    between atoms: _492  and  _493
REMARK  196  A    between atoms: _492  and  _495
REMARK  197  A    between atoms: _495  and  _496
REMARK  198  A    between atoms: _496  and  _497
REMARK  199  A    between atoms: _502  and  _504
REMARK  200  A    between atoms: _504  and  _505
REMARK  201  A    between atoms: _508  and  _510
REMARK  202  A    between atoms: _510  and  _511
REMARK  203  A    between atoms: _510  and  _513
REMARK  204  A    between atoms: _513  and  _514
REMARK  205  A    between atoms: _517  and  _519
REMARK  206  A    between atoms: _519  and  _520
REMARK  207  A    between atoms: _519  and  _522
REMARK  208  A    between atoms: _525  and  _527
REMARK  209  A    between atoms: _527  and  _528
REMARK  210  A    between atoms: _531  and  _533
REMARK  211  A    between atoms: _533  and  _534
REMARK  212  A    between atoms: _537  and  _539
REMARK  213  A    between atoms: _539  and  _540
REMARK  214  A    between atoms: _539  and  _542
REMARK  215  A    between atoms: _542  and  _543
REMARK                            x       y       z     vdW  Elec       q    Type
REMARK                         _______ _______ _______ _____ _____    ______ ____
ROOT
ATOM      1  C   GLN A   8     -13.925   4.607  -1.030  0.00  0.00    +0.241 C 
ATOM      2  N   THR A   9     -14.591   4.686   0.125  0.00  0.00    -0.295 N 
ATOM      3  H   THR A   9     -15.470   4.142   0.234  0.00  0.00    +0.150 HD
ATOM      4  O   GLN A   8     -12.836   5.143  -1.220  0.00  0.00    -0.273 OA
ENDROOT
BRANCH   1   5
ATOM      5  CA  GLN A   8     -14.573   3.788  -2.143  0.00  0.00    +0.149 C 
BRANCH   5   8
ATOM      6  C   GLY A   7     -15.485   1.654  -1.385  0.00  0.00    +0.243 C 
ATOM      7  O   GLY A   7     -14.377   1.116  -1.368  0.00  0.00    -0.273 OA
ATOM      8  N   GLN A   8     -15.671   2.938  -1.680  0.00  0.00    -0.297 N 
ATOM      9  H   GLN A   8     -16.621   3.348  -1.579  0.00  0.00    +0.150 HD
BRANCH   6  10
ATOM     10  CA  GLY A   7     -16.730   0.860  -1.043  0.00  0.00    +0.176 C 
BRANCH  10  12
ATOM     11  C   ARG A   6     -16.307  -1.379  -0.133  0.00  0.00    +0.241 C 
ATOM     12  N   GLY A   7     -16.435  -0.075   0.046  0.00  0.00    -0.295 N 
ATOM     13  H   GLY A   7     -16.321   0.306   1.007  0.00  0.00    +0.150 HD
ATOM     14  O   ARG A   6     -16.517  -1.956  -1.199  0.00  0.00    -0.273 OA
BRANCH  11  15
ATOM     15  CA  ARG A   6     -15.899  -2.172   1.102  0.00  0.00    +0.149 C 
BRANCH  15  18
ATOM     16  C   ILE A   5     -18.008  -3.332   1.345  0.00  0.00    +0.241 C 
ATOM     17  O   ILE A   5     -18.636  -2.262   1.313  0.00  0.00    -0.273 OA
ATOM     18  N   ARG A   6     -16.685  -3.398   1.206  0.00  0.00    -0.297 N 
ATOM     19  H   ARG A   6     -16.212  -4.323   1.172  0.00  0.00    +0.150 HD
BRANCH  16  20
ATOM     20  CA  ILE A   5     -18.737  -4.643   1.587  0.00  0.00    +0.149 C 
BRANCH  20  23
ATOM     21  C   VAL A   4     -19.495  -5.292   3.813  0.00  0.00    +0.241 C 
ATOM     22  O   VAL A   4     -18.635  -6.148   3.905  0.00  0.00    -0.273 OA
ATOM     23  N   ILE A   5     -19.630  -4.501   2.749  0.00  0.00    -0.297 N 
ATOM     24  H   ILE A   5     -20.375  -3.775   2.739  0.00  0.00    +0.150 HD
BRANCH  21  25
ATOM     25  CA  VAL A   4     -20.516  -5.123   4.928  0.00  0.00    +0.149 C 
BRANCH  25  27
ATOM     26  C   VAL A   3     -22.416  -6.632   4.926  0.00  0.00    +0.241 C 
ATOM     27  N   VAL A   4     -21.119  -6.434   5.153  0.00  0.00    -0.297 N 
ATOM     28  H   VAL A   4     -20.530  -7.220   5.494  0.00  0.00    +0.150 HD
ATOM     29  O   VAL A   3     -23.212  -5.729   4.638  0.00  0.00    -0.273 OA
BRANCH  26  30
ATOM     30  CA  VAL A   3     -22.896  -8.047   5.048  0.00  0.00    +0.149 C 
BRANCH  30  33
ATOM     31  C   GLY A   2     -24.033  -9.144   6.873  0.00  0.00    +0.243 C 
ATOM     32  O   GLY A   2     -23.260 -10.101   6.883  0.00  0.00    -0.273 OA
ATOM     33  N   VAL A   3     -23.900  -8.083   6.093  0.00  0.00    -0.297 N 
ATOM     34  H   VAL A   3     -24.525  -7.263   6.232  0.00  0.00    +0.150 HD
BRANCH  31  35
ATOM     35  CA  GLY A   2     -25.228  -9.109   7.780  0.00  0.00    +0.176 C 
BRANCH  35  38
ATOM     36  C   LEU A   1     -26.094 -10.331   9.633  0.00  0.00    +0.238 C 
ATOM     37  O   LEU A   1     -26.891  -9.451   9.869  0.00  0.00    -0.274 OA
ATOM     38  N   GLY A   2     -25.231 -10.265   8.636  0.00  0.00    -0.296 N 
ATOM     39  H   GLY A   2     -24.559 -11.042   8.471  0.00  0.00    +0.150 HD
BRANCH  36  40
ATOM     40  CA  LEU A   1     -26.094 -11.592  10.430  0.00  0.00    +0.145 C 
BRANCH  40  41
ATOM     41  N   LEU A   1     -26.329 -11.330  11.847  0.00  0.00    -0.238 NA
ATOM     42  H   LEU A   1     -27.180 -10.807  12.137  0.00  0.00    +0.142 HD
ENDBRANCH  40  41
BRANCH  40  43
ATOM     43  CB  LEU A   1     -27.216 -12.458   9.852  0.00  0.00    +0.026 C 
BRANCH  43  44
ATOM     44  CG  LEU A   1     -27.433 -13.826  10.476  0.00  0.00    +0.002 C 
ATOM     45  CD2 LEU A   1     -26.204 -14.660  10.358  0.00  0.00    +0.000 C 
ATOM     46  CD1 LEU A   1     -28.587 -14.491   9.794  0.00  0.00    +0.000 C 
ENDBRANCH  43  44
ENDBRANCH  40  43
ENDBRANCH  36  40
ENDBRANCH  35  38
ENDBRANCH  31  35
ENDBRANCH  30  33
BRANCH  30  47
ATOM     47  CB  VAL A   3     -23.495  -8.448   3.677  0.00  0.00    +0.027 C 
ATOM     48  CG2 VAL A   3     -24.131  -9.826   3.766  0.00  0.00    +0.002 C 
ATOM     49  CG1 VAL A   3     -22.397  -8.415   2.640  0.00  0.00    +0.002 C 
ENDBRANCH  30  47
ENDBRANCH  26  30
ENDBRANCH  25  27
BRANCH  25  50
ATOM     50  CB  VAL A   4     -19.841  -4.534   6.190  0.00  0.00    +0.027 C 
ATOM     51  CG2 VAL A   4     -20.782  -4.631   7.402  0.00  0.00    +0.002 C 
ATOM     52  CG1 VAL A   4     -19.487  -3.099   5.955  0.00  0.00    +0.002 C 
ENDBRANCH  25  50
ENDBRANCH  21  25
ENDBRANCH  20  23
BRANCH  20  53
ATOM     53  CB  ILE A   5     -19.516  -5.043   0.316  0.00  0.00    +0.027 C 
ATOM     54  CG2 ILE A   5     -18.557  -5.137  -0.873  0.00  0.00    +0.002 C 
BRANCH  53  55
ATOM     55  CG1 ILE A   5     -20.284  -6.352   0.521  0.00  0.00    +0.002 C 
ATOM     56  CD1 ILE A   5     -21.231  -6.705  -0.626  0.00  0.00    +0.000 C 
ENDBRANCH  53  55
ENDBRANCH  20  53
ENDBRANCH  16  20
ENDBRANCH  15  18
BRANCH  15  57
ATOM     57  CB  ARG A   6     -14.404  -2.468   1.081  0.00  0.00    +0.033 C 
BRANCH  57  58
ATOM     58  CG  ARG A   6     -13.555  -1.215   1.152  0.00  0.00    +0.045 C 
BRANCH  58  59
ATOM     59  CD  ARG A   6     -12.100  -1.494   0.885  0.00  0.00    +0.174 C 
BRANCH  59  60
ATOM     60  NE  ARG A   6     -11.557  -2.525   1.765  0.00  0.00    -0.265 N 
ATOM     61  CZ  ARG A   6     -11.152  -2.325   3.019  0.00  0.00    +0.342 C 
ATOM     62  NH2 ARG A   6     -10.669  -3.348   3.708  0.00  0.00    -0.292 N 
ATOM     63 HH21 ARG A   6     -10.348  -3.210   4.688  0.00  0.00    +0.255 HD
ATOM     64 HH22 ARG A   6     -10.610  -4.289   3.269  0.00  0.00    +0.255 HD
ATOM     65  NH1 ARG A   6     -11.225  -1.122   3.589  0.00  0.00    -0.292 N 
ATOM     66 HH11 ARG A   6     -10.903  -0.991   4.569  0.00  0.00    +0.255 HD
ATOM     67 HH12 ARG A   6     -11.604  -0.315   3.054  0.00  0.00    +0.255 HD
ATOM     68  HE  ARG A   6     -11.480  -3.490   1.384  0.00  0.00    +0.259 HD
ENDBRANCH  59  60
ENDBRANCH  58  59
ENDBRANCH  57  58
ENDBRANCH  15  57
ENDBRANCH  11  15
ENDBRANCH  10  12
ENDBRANCH   6  10
ENDBRANCH   5   8
BRANCH   5  69
ATOM     69  CB  GLN A   8     -15.035   4.714  -3.290  0.00  0.00    +0.039 C 
BRANCH  69  70
ATOM     70  CG  GLN A   8     -15.479   3.956  -4.528  0.00  0.00    +0.087 C 
BRANCH  70  71
ATOM     71  CD  GLN A   8     -14.434   2.948  -5.003  0.00  0.00    +0.219 C 
ATOM     72  NE2 GLN A   8     -14.805   1.681  -5.011  0.00  0.00    -0.329 N 
ATOM     73 HE21 GLN A   8     -15.770   1.420  -4.724  0.00  0.00    +0.145 HD
ATOM     74 HE22 GLN A   8     -14.132   0.944  -5.304  0.00  0.00    +0.145 HD
ATOM     75  OE1 GLN A   8     -13.302   3.309  -5.334  0.00  0.00    -0.275 OA
ENDBRANCH  70  71
ENDBRANCH  69  70
ENDBRANCH   5  69
ENDBRANCH   1   5
BRANCH   2  76
ATOM     76  CA  THR A   9     -14.128   5.511   1.243  0.00  0.00    +0.176 C 
BRANCH  76  77
ATOM     77  C   THR A   9     -13.658   4.623   2.420  0.00  0.00    +0.246 C 
ATOM     78  N   PRO A  10     -13.103   5.245   3.476  0.00  0.00    -0.272 N 
ATOM     79  CA  PRO A  10     -12.776   4.520   4.714  0.00  0.00    +0.152 C 
ATOM     80  CB  PRO A  10     -12.044   5.578   5.549  0.00  0.00    +0.031 C 
ATOM     81  CG  PRO A  10     -11.539   6.562   4.562  0.00  0.00    +0.024 C 
ATOM     82  CD  PRO A  10     -12.639   6.641   3.539  0.00  0.00    +0.094 C 
ATOM     83  O   THR A   9     -13.773   3.404   2.353  0.00  0.00    -0.273 OA
BRANCH  79  84
ATOM     84  C   PRO A  10     -13.993   4.025   5.481  0.00  0.00    +0.241 C 
ATOM     85  O   PRO A  10     -13.821   3.304   6.471  0.00  0.00    -0.273 OA
ATOM     86  N   HIS A  11     -15.205   4.371   5.039  0.00  0.00    -0.297 N 
ATOM     87  H   HIS A  11     -15.299   4.830   4.111  0.00  0.00    +0.150 HD
BRANCH  86  88
ATOM     88  CA  HIS A  11     -16.394   4.116   5.835  0.00  0.00    +0.155 C 
BRANCH  88  89
ATOM     89  C   HIS A  11     -16.554   2.666   6.264  0.00  0.00    +0.241 C 
ATOM     90  O   HIS A  11     -16.962   2.385   7.393  0.00  0.00    -0.273 OA
ATOM     91  N   PHE A  12     -16.228   1.747   5.363  0.00  0.00    -0.297 N 
ATOM     92  H   PHE A  12     -15.973   2.056   4.403  0.00  0.00    +0.150 HD
BRANCH  91  93
ATOM     93  CA  PHE A  12     -16.214   0.323   5.667  0.00  0.00    +0.153 C 
BRANCH  93  94
ATOM     94  C   PHE A  12     -15.526   0.007   7.002  0.00  0.00    +0.241 C 
ATOM     95  O   PHE A  12     -16.062  -0.784   7.800  0.00  0.00    -0.273 OA
ATOM     96  N   ASP A  13     -14.354   0.606   7.241  0.00  0.00    -0.297 N 
ATOM     97  H   ASP A  13     -13.986   1.294   6.553  0.00  0.00    +0.150 HD
BRANCH  96  98
ATOM     98  CA  ASP A  13     -13.574   0.315   8.453  0.00  0.00    +0.160 C 
BRANCH  98  99
ATOM     99  C   ASP A  13     -14.389   0.648   9.687  0.00  0.00    +0.241 C 
ATOM    100  O   ASP A  13     -14.387  -0.111  10.665  0.00  0.00    -0.273 OA
ATOM    101  N   TYR A  14     -15.076   1.781   9.642  0.00  0.00    -0.297 N 
ATOM    102  H   TYR A  14     -15.101   2.331   8.760  0.00  0.00    +0.150 HD
BRANCH 101 103
ATOM    103  CA  TYR A  14     -15.798   2.266  10.814  0.00  0.00    +0.153 C 
BRANCH 103 104
ATOM    104  C   TYR A  14     -17.075   1.497  11.066  0.00  0.00    +0.241 C 
ATOM    105  O   TYR A  14     -17.397   1.209  12.234  0.00  0.00    -0.273 OA
ATOM    106  N   VAL A  15     -17.745   1.068   9.993  0.00  0.00    -0.297 N 
ATOM    107  H   VAL A  15     -17.414   1.326   9.041  0.00  0.00    +0.150 HD
BRANCH 106 108
ATOM    108  CA  VAL A  15     -18.930   0.246  10.143  0.00  0.00    +0.149 C 
BRANCH 108 109
ATOM    109  C   VAL A  15     -18.507  -1.048  10.834  0.00  0.00    +0.241 C 
ATOM    110  O   VAL A  15     -19.100  -1.473  11.834  0.00  0.00    -0.273 OA
ATOM    111  N   CYS A  16     -17.433  -1.642  10.342  0.00  0.00    -0.297 N 
ATOM    112  H   CYS A  16     -16.924  -1.219   9.540  0.00  0.00    +0.150 HD
BRANCH 111 113
ATOM    113  CA  CYS A  16     -16.964  -2.893  10.929  0.00  0.00    +0.149 C 
BRANCH 113 114
ATOM    114  CB  CYS A  16     -15.908  -3.512  10.036  0.00  0.00    +0.096 C 
ATOM    115  SG  CYS A  16     -16.547  -4.005   8.379  0.00  0.00    -0.080 S 
ENDBRANCH 113 114
BRANCH 113 116
ATOM    116  C   CYS A  16     -16.456  -2.746  12.376  0.00  0.00    +0.228 C 
ATOM    117  O   CYS A  16     -16.731  -3.620  13.216  0.00  0.00    -0.286 OA
ENDBRANCH 113 116
ENDBRANCH 111 113
ENDBRANCH 108 109
BRANCH 108 118
ATOM    118  CB  VAL A  15     -19.669  -0.002   8.795  0.00  0.00    +0.027 C 
ATOM    119  CG2 VAL A  15     -20.837  -0.970   9.001  0.00  0.00    +0.002 C 
ATOM    120  CG1 VAL A  15     -20.170   1.342   8.233  0.00  0.00    +0.002 C 
ENDBRANCH 108 118
ENDBRANCH 106 108
ENDBRANCH 103 104
BRANCH 103 121
ATOM    121  CB  TYR A  14     -15.987   3.791  10.724  0.00  0.00    +0.055 C 
BRANCH 121 122
ATOM    122  CG  TYR A  14     -14.634   4.432  10.636  0.00  0.00    -0.020 A 
ATOM    123  CD2 TYR A  14     -13.780   4.441  11.743  0.00  0.00    -0.001 A 
ATOM    124  CE2 TYR A  14     -12.503   4.967  11.662  0.00  0.00    +0.036 A 
ATOM    125  CZ  TYR A  14     -12.058   5.481  10.454  0.00  0.00    +0.134 A 
ATOM    126  CE1 TYR A  14     -12.868   5.467   9.339  0.00  0.00    +0.036 A 
ATOM    127  CD1 TYR A  14     -14.150   4.932   9.427  0.00  0.00    -0.001 A 
BRANCH 125 128
ATOM    128  OH  TYR A  14     -10.794   5.993  10.402  0.00  0.00    -0.506 OA
ATOM    129  HH  TYR A  14     -10.262   5.488   9.738  0.00  0.00    +0.292 HD
ENDBRANCH 125 128
ENDBRANCH 121 122
ENDBRANCH 103 121
ENDBRANCH 101 103
ENDBRANCH  98  99
BRANCH  98 130
ATOM    130  CB  ASP A  13     -12.308   1.168   8.519  0.00  0.00    +0.143 C 
BRANCH 130 131
ATOM    131  CG  ASP A  13     -11.327   0.860   7.420  0.00  0.00    +0.367 C 
ATOM    132  OD2 ASP A  13     -10.434   1.713   7.208  0.00  0.00    -0.246 OA
ATOM    133  OD1 ASP A  13     -11.419  -0.215   6.788  0.00  0.00    -0.246 OA
ENDBRANCH 130 131
ENDBRANCH  98 130
ENDBRANCH  96  98
ENDBRANCH  93  94
BRANCH  93 134
ATOM    134  CB  PHE A  12     -15.525  -0.419   4.530  0.00  0.00    +0.055 C 
BRANCH 134 135
ATOM    135  CG  PHE A  12     -15.224  -1.862   4.829  0.00  0.00    -0.020 A 
ATOM    136  CD2 PHE A  12     -13.978  -2.232   5.349  0.00  0.00    -0.004 A 
ATOM    137  CE2 PHE A  12     -13.674  -3.564   5.607  0.00  0.00    -0.000 A 
ATOM    138  CZ  PHE A  12     -14.603  -4.542   5.315  0.00  0.00    -0.000 A 
ATOM    139  CE1 PHE A  12     -15.848  -4.191   4.784  0.00  0.00    -0.000 A 
ATOM    140  CD1 PHE A  12     -16.153  -2.854   4.540  0.00  0.00    -0.004 A 
ENDBRANCH 134 135
ENDBRANCH  93 134
ENDBRANCH  91  93
ENDBRANCH  88  89
BRANCH  88 141
ATOM    141  CB  HIS A  11     -17.659   4.597   5.130  0.00  0.00    +0.076 C 
BRANCH 141 142
ATOM    142  CG  HIS A  11     -18.765   4.905   6.079  0.00  0.00    +0.082 A 
ATOM    143  ND1 HIS A  11     -18.692   5.939   6.989  0.00  0.00    -0.227 NA
ATOM    144  CE1 HIS A  11     -19.799   5.959   7.710  0.00  0.00    +0.199 A 
ATOM    145  NE2 HIS A  11     -20.571   4.961   7.318  0.00  0.00    -0.221 NA
ATOM    146  CD2 HIS A  11     -19.946   4.286   6.298  0.00  0.00    +0.115 A 
ENDBRANCH 141 142
ENDBRANCH  88 141
ENDBRANCH  86  88
ENDBRANCH  79  84
ENDBRANCH  76  77
BRANCH  76 147
ATOM    147  CB  THR A   9     -15.247   6.464   1.736  0.00  0.00    +0.137 C 
ATOM    148  CG2 THR A   9     -16.023   7.091   0.546  0.00  0.00    +0.034 C 
BRANCH 147 149
ATOM    149  OG1 THR A   9     -16.160   5.747   2.579  0.00  0.00    -0.382 OA
ATOM    150  HG1 THR A   9     -16.565   5.003   2.067  0.00  0.00    +0.210 HD
ENDBRANCH 147 149
ENDBRANCH  76 147
ENDBRANCH   2  76
TORSDOF 57
REMARK  Name = ../refined-set-2016/2c92/2c92_pocket.pdb
REMARK  215 active torsions:
REMARK  status: ('A' for Active; 'I' for Inactive)
REMARK    1  A    between atoms: _1  and  _3
REMARK    2  A    between atoms: _3  and  _4
REMARK    3  A    between atoms: _7  and  _9
REMARK    4  A    between atoms: _9  and  _10
REMARK    5  A    between atoms: _9  and  _12
REMARK    6  A    between atoms: _12  and  _13
REMARK    7  A    between atoms: _15  and  _17
REMARK    8  A    between atoms: _17  and  _18
REMARK    9  A    between atoms: _17  and  _20
REMARK   10  A    between atoms: _20  and  _21
REMARK   11  A    between atoms: _23  and  _25
REMARK   12  A    between atoms: _25  and  _26
REMARK   13  A    between atoms: _25  and  _28
REMARK   14  A    between atoms: _28  and  _29
REMARK   15  A    between atoms: _39  and  _41
REMARK   16  A    between atoms: _41  and  _42
REMARK   17  A    between atoms: _41  and  _44
REMARK   18  A    between atoms: _44  and  _45
REMARK   19  A    between atoms: _50  and  _52
REMARK   20  A    between atoms: _52  and  _53
REMARK   21  A    between atoms: _52  and  _55
REMARK   22  A    between atoms: _57  and  _59
REMARK   23  A    between atoms: _59  and  _60
REMARK   24  A    between atoms: _59  and  _62
REMARK   25  A    between atoms: _65  and  _67
REMARK   26  A    between atoms: _67  and  _68
REMARK   27  A    between atoms: _67  and  _70
REMARK   28  A    between atoms: _70  and  _71
REMARK   29  A    between atoms: _74  and  _76
REMARK   30  A    between atoms: _76  and  _77
REMARK   31  A    between atoms: _79  and  _81
REMARK   32  A    between atoms: _81  and  _82
REMARK   33  A    between atoms: _85  and  _87
REMARK   34  A    between atoms: _87  and  _88
REMARK   35  A    between atoms: _87  and  _90
REMARK   36  A    between atoms: _90  and  _91
REMARK   37  A    between atoms: _94  and  _96
REMARK   38  A    between atoms: _96  and  _97
REMARK   39  A    between atoms: _96  and  _99
REMARK   40  A    between atoms: _99  and  _100
REMARK   41  A    between atoms: _100  and  _101
REMARK   42  A    between atoms: _104  and  _106
REMARK   43  A    between atoms: _106  and  _107
REMARK   44  A    between atoms: _106  and  _109
REMARK   45  A    between atoms: _109  and  _110
REMARK   46  A    between atoms: _113  and  _115
REMARK   47  A    between atoms: _115  and  _116
REMARK   48  A    between atoms: _115  and  _118
REMARK   49  A    between atoms: _118  and  _119
REMARK   50  A    between atoms: _122  and  _124
REMARK   51  A    between atoms: _124  and  _125
REMARK   52  A    between atoms: _127  and  _129
REMARK   53  A    between atoms: _129  and  _130
REMARK   54  A    between atoms: _129  and  _132
REMARK   55  A    between atoms: _135  and  _137
REMARK   56  A    between atoms: _137  and  _138
REMARK   57  A    between atoms: _137  and  _140
REMARK   58  A    between atoms: _143  and  _145
REMARK   59  A    between atoms: _145  and  _146
REMARK   60  A    between atoms: _145  and  _148
REMARK   61  A    between atoms: _148  and  _149
REMARK   62  A    between atoms: _152  and  _154
REMARK   63  A    between atoms: _154  and  _155
REMARK   64  A    between atoms: _154  and  _157
REMARK   65  A    between atoms: _157  and  _158
REMARK   66  A    between atoms: _158  and  _159
REMARK   67  A    between atoms: _159  and  _160
REMARK   68  A    between atoms: _169  and  _171
REMARK   69  A    between atoms: _171  and  _172
REMARK   70  A    between atoms: _174  and  _176
REMARK   71  A    between atoms: _176  and  _177
REMARK   72  A    between atoms: _176  and  _179
REMARK   73  A    between atoms: _179  and  _180
REMARK   74  A    between atoms: _180  and  _181
REMARK   75  A    between atoms: _186  and  _188
REMARK   76  A    between atoms: _188  and  _189
REMARK   77  A    between atoms: _188  and  _191
REMARK   78  A    between atoms: _191  and  _192
REMARK   79  A    between atoms: _196  and  _197
REMARK   80  A    between atoms: _202  and  _204
REMARK   81  A    between atoms: _204  and  _205
REMARK   82  A    between atoms: _204  and  _207
REMARK   83  A    between atoms: _207  and  _208
REMARK   84  A    between atoms: _213  and  _215
REMARK   85  A    between atoms: _215  and  _216
REMARK   86  A    between atoms: _215  and  _218
REMARK   87  A    between atoms: _218  and  _219
REMARK   88  A    between atoms: _225  and  _227
REMARK   89  A    between atoms: _227  and  _228
REMARK   90  A    between atoms: _227  and  _230
REMARK   91  A    between atoms: _230  and  _231
REMARK   92  A    between atoms: _234  and  _236
REMARK   93  A    between atoms: _236  and  _237
REMARK   94  A    between atoms: _236  and  _239
REMARK   95  A    between atoms: _239  and  _240
REMARK   96  A    between atoms: _245  and  _246
REMARK   97  A    between atoms: _248  and  _250
REMARK   98  A    between atoms: _250  and  _251
REMARK   99  A    between atoms: _250  and  _253
REMARK  100  A    between atoms: _256  and  _258
REMARK  101  A    between atoms: _258  and  _259
REMARK  102  A    between atoms: _258  and  _261
REMARK  103  A    between atoms: _263  and  _265
REMARK  104  A    between atoms: _265  and  _266
REMARK  105  A    between atoms: _269  and  _271
REMARK  106  A    between atoms: _271  and  _272
REMARK  107  A    between atoms: _271  and  _274
REMARK  108  A    between atoms: _277  and  _279
REMARK  109  A    between atoms: _279  and  _280
REMARK  110  A    between atoms: _279  and  _282
REMARK  111  A    between atoms: _285  and  _287
REMARK  112  A    between atoms: _287  and  _288
REMARK  113  A    between atoms: _287  and  _290
REMARK  114  A    between atoms: _290  and  _291
REMARK  115  A    between atoms: _294  and  _296
REMARK  116  A    between atoms: _296  and  _297
REMARK  117  A    between atoms: _296  and  _299
REMARK  118  A    between atoms: _299  and  _300
REMARK  119  A    between atoms: _303  and  _305
REMARK  120  A    between atoms: _305  and  _306
REMARK  121  A    between atoms: _305  and  _308
REMARK  122  A    between atoms: _311  and  _313
REMARK  123  A    between atoms: _313  and  _314
REMARK  124  A    between atoms: _313  and  _316
REMARK  125  A    between atoms: _319  and  _321
REMARK  126  A    between atoms: _321  and  _322
REMARK  127  A    between atoms: _325  and  _327
REMARK  128  A    between atoms: _327  and  _328
REMARK  129  A    between atoms: _327  and  _330
REMARK  130  A    between atoms: _330  and  _331
REMARK  131  A    between atoms: _335  and  _336
REMARK  132  A    between atoms: _341  and  _343
REMARK  133  A    between atoms: _343  and  _344
REMARK  134  A    between atoms: _343  and  _346
REMARK  135  A    between atoms: _346  and  _347
REMARK  136  A    between atoms: _350  and  _352
REMARK  137  A    between atoms: _352  and  _353
REMARK  138  A    between atoms: _356  and  _358
REMARK  139  A    between atoms: _358  and  _359
REMARK  140  A    between atoms: _358  and  _361
REMARK  141  A    between atoms: _361  and  _362
REMARK  142  A    between atoms: _367  and  _369
REMARK  143  A    between atoms: _369  and  _370
REMARK  144  A    between atoms: _372  and  _374
REMARK  145  A    between atoms: _374  and  _375
REMARK  146  A    between atoms: _374  and  _377
REMARK  147  A    between atoms: _380  and  _382
REMARK  148  A    between atoms: _382  and  _383
REMARK  149  A    between atoms: _382  and  _385
REMARK  150  A    between atoms: _385  and  _386
REMARK  151  A    between atoms: _389  and  _391
REMARK  152  A    between atoms: _391  and  _392
REMARK  153  A    between atoms: _391  and  _394
REMARK  154  A    between atoms: _394  and  _395
REMARK  155  A    between atoms: _398  and  _400
REMARK  156  A    between atoms: _400  and  _401
REMARK  157  A    between atoms: _400  and  _403
REMARK  158  A    between atoms: _403  and  _404
REMARK  159  A    between atoms: _407  and  _409
REMARK  160  A    between atoms: _409  and  _410
REMARK  161  A    between atoms: _409  and  _412
REMARK  162  A    between atoms: _412  and  _413
REMARK  163  A    between atoms: _418  and  _420
REMARK  164  A    between atoms: _420  and  _421
REMARK  165  A    between atoms: _420  and  _423
REMARK  166  A    between atoms: _423  and  _424
REMARK  167  A    between atoms: _424  and  _425
REMARK  168  A    between atoms: _430  and  _432
REMARK  169  A    between atoms: _432  and  _433
REMARK  170  A    between atoms: _432  and  _435
REMARK  171  A    between atoms: _435  and  _436
REMARK  172  A    between atoms: _439  and  _441
REMARK  173  A    between atoms: _441  and  _442
REMARK  174  A    between atoms: _441  and  _444
REMARK  175  A    between atoms: _444  and  _445
REMARK  176  A    between atoms: _445  and  _446
REMARK  177  A    between atoms: _446  and  _447
REMARK  178  A    between atoms: _456  and  _458
REMARK  179  A    between atoms: _458  and  _459
REMARK  180  A    between atoms: _458  and  _461
REMARK  181  A    between atoms: _461  and  _462
REMARK  182  A    between atoms: _462  and  _463
REMARK  183  A    between atoms: _466  and  _468
REMARK  184  A    between atoms: _468  and  _469
REMARK  185  A    between atoms: _468  and  _471
REMARK  186  A    between atoms: _471  and  _472
REMARK  187  A    between atoms: _472  and  _473
REMARK  188  A    between atoms: _473  and  _474
REMARK  189  A    between atoms: _474  and  _475
REMARK  190  A    between atoms: _479  and  _481
REMARK  191  A    between atoms: _481  and  _482
REMARK  192  A    between atoms: _484  and  _486
REMARK  193  A    between atoms: _486  and  _487
REMARK  194  A    between atoms: _490  and  _492
REMARK  195  A    between atoms: _492  and  _493
REMARK  196  A    between atoms: _492  and  _495
REMARK  197  A    between atoms: _495  and  _496
REMARK  198  A    between atoms: _496  and  _497
REMARK  199  A    between atoms: _502  and  _504
REMARK  200  A    between atoms: _504  and  _505
REMARK  201  A    between atoms: _508  and  _510
REMARK  202  A    between atoms: _510  and  _511
REMARK  203  A    between atoms: _510  and  _513
REMARK  204  A    between atoms: _513  and  _514
REMARK  205  A    between atoms: _517  and  _519
REMARK  206  A    between atoms: _519  and  _520
REMARK  207  A    between atoms: _519  and  _522
REMARK  208  A    between atoms: _525  and  _527
REMARK  209  A    between atoms: _527  and  _528
REMARK  210  A    between atoms: _531  and  _533
REMARK  211  A    between atoms: _533  and  _534
REMARK  212  A    between atoms: _537  and  _539
REMARK  213  A    between atoms: _539  and  _540
REMARK  214  A    between atoms: _539  and  _542
REMARK  215  A    between atoms: _542  and  _543
REMARK                            x       y       z     vdW  Elec       q    Type
REMARK                         _______ _______ _______ _____ _____    ______ ____
ROOT
ATOM      1  C   ALA A   1     -19.384  -1.740  15.695  0.00  0.00    +0.238 C 
ATOM      2  O   ALA A   1     -19.733  -2.032  16.844  0.00  0.00    -0.274 OA
ATOM      3  N   VAL A   2     -19.534  -2.574  14.672  0.00  0.00    -0.298 N 
ATOM      4  H   VAL A   2     -19.211  -2.294  13.724  0.00  0.00    +0.150 HD
ENDROOT
BRANCH   1   5
ATOM      5  CA  ALA A   1     -18.743  -0.390  15.380  0.00  0.00    +0.145 C 
ATOM      6  CB  ALA A   1     -19.732   0.527  14.661  0.00  0.00    +0.028 C 
BRANCH   5   7
ATOM      7  N   ALA A   1     -17.538  -0.572  14.549  0.00  0.00    -0.238 NA
ATOM      8  H   ALA A   1     -17.507  -0.138  13.605  0.00  0.00    +0.142 HD
ENDBRANCH   5   7
ENDBRANCH   1   5
BRANCH   3   9
ATOM      9  CA  VAL A   2     -20.149  -3.880  14.873  0.00  0.00    +0.137 C 
BRANCH   9  10
ATOM     10  CB  VAL A   2     -20.337  -4.597  13.528  0.00  0.00    +0.026 C 
ATOM     11  CG2 VAL A   2     -20.769  -6.070  13.732  0.00  0.00    +0.002 C 
ATOM     12  CG1 VAL A   2     -21.343  -3.829  12.691  0.00  0.00    +0.002 C 
ENDBRANCH   9  10
BRANCH   9  13
ATOM     13  C   VAL A   2     -19.308  -4.717  15.826  0.00  0.00    +0.227 C 
ATOM     14  O   VAL A   2     -19.831  -5.339  16.755  0.00  0.00    -0.286 OA
ENDBRANCH   9  13
ENDBRANCH   3   9
TORSDOF 5
REMARK  Name = ../refined-set-2016/2c92/2c92_pocket.pdb
REMARK  215 active torsions:
REMARK  status: ('A' for Active; 'I' for Inactive)
REMARK    1  A    between atoms: _1  and  _3
REMARK    2  A    between atoms: _3  and  _4
REMARK    3  A    between atoms: _7  and  _9
REMARK    4  A    between atoms: _9  and  _10
REMARK    5  A    between atoms: _9  and  _12
REMARK    6  A    between atoms: _12  and  _13
REMARK    7  A    between atoms: _15  and  _17
REMARK    8  A    between atoms: _17  and  _18
REMARK    9  A    between atoms: _17  and  _20
REMARK   10  A    between atoms: _20  and  _21
REMARK   11  A    between atoms: _23  and  _25
REMARK   12  A    between atoms: _25  and  _26
REMARK   13  A    between atoms: _25  and  _28
REMARK   14  A    between atoms: _28  and  _29
REMARK   15  A    between atoms: _39  and  _41
REMARK   16  A    between atoms: _41  and  _42
REMARK   17  A    between atoms: _41  and  _44
REMARK   18  A    between atoms: _44  and  _45
REMARK   19  A    between atoms: _50  and  _52
REMARK   20  A    between atoms: _52  and  _53
REMARK   21  A    between atoms: _52  and  _55
REMARK   22  A    between atoms: _57  and  _59
REMARK   23  A    between atoms: _59  and  _60
REMARK   24  A    between atoms: _59  and  _62
REMARK   25  A    between atoms: _65  and  _67
REMARK   26  A    between atoms: _67  and  _68
REMARK   27  A    between atoms: _67  and  _70
REMARK   28  A    between atoms: _70  and  _71
REMARK   29  A    between atoms: _74  and  _76
REMARK   30  A    between atoms: _76  and  _77
REMARK   31  A    between atoms: _79  and  _81
REMARK   32  A    between atoms: _81  and  _82
REMARK   33  A    between atoms: _85  and  _87
REMARK   34  A    between atoms: _87  and  _88
REMARK   35  A    between atoms: _87  and  _90
REMARK   36  A    between atoms: _90  and  _91
REMARK   37  A    between atoms: _94  and  _96
REMARK   38  A    between atoms: _96  and  _97
REMARK   39  A    between atoms: _96  and  _99
REMARK   40  A    between atoms: _99  and  _100
REMARK   41  A    between atoms: _100  and  _101
REMARK   42  A    between atoms: _104  and  _106
REMARK   43  A    between atoms: _106  and  _107
REMARK   44  A    between atoms: _106  and  _109
REMARK   45  A    between atoms: _109  and  _110
REMARK   46  A    between atoms: _113  and  _115
REMARK   47  A    between atoms: _115  and  _116
REMARK   48  A    between atoms: _115  and  _118
REMARK   49  A    between atoms: _118  and  _119
REMARK   50  A    between atoms: _122  and  _124
REMARK   51  A    between atoms: _124  and  _125
REMARK   52  A    between atoms: _127  and  _129
REMARK   53  A    between atoms: _129  and  _130
REMARK   54  A    between atoms: _129  and  _132
REMARK   55  A    between atoms: _135  and  _137
REMARK   56  A    between atoms: _137  and  _138
REMARK   57  A    between atoms: _137  and  _140
REMARK   58  A    between atoms: _143  and  _145
REMARK   59  A    between atoms: _145  and  _146
REMARK   60  A    between atoms: _145  and  _148
REMARK   61  A    between atoms: _148  and  _149
REMARK   62  A    between atoms: _152  and  _154
REMARK   63  A    between atoms: _154  and  _155
REMARK   64  A    between atoms: _154  and  _157
REMARK   65  A    between atoms: _157  and  _158
REMARK   66  A    between atoms: _158  and  _159
REMARK   67  A    between atoms: _159  and  _160
REMARK   68  A    between atoms: _169  and  _171
REMARK   69  A    between atoms: _171  and  _172
REMARK   70  A    between atoms: _174  and  _176
REMARK   71  A    between atoms: _176  and  _177
REMARK   72  A    between atoms: _176  and  _179
REMARK   73  A    between atoms: _179  and  _180
REMARK   74  A    between atoms: _180  and  _181
REMARK   75  A    between atoms: _186  and  _188
REMARK   76  A    between atoms: _188  and  _189
REMARK   77  A    between atoms: _188  and  _191
REMARK   78  A    between atoms: _191  and  _192
REMARK   79  A    between atoms: _196  and  _197
REMARK   80  A    between atoms: _202  and  _204
REMARK   81  A    between atoms: _204  and  _205
REMARK   82  A    between atoms: _204  and  _207
REMARK   83  A    between atoms: _207  and  _208
REMARK   84  A    between atoms: _213  and  _215
REMARK   85  A    between atoms: _215  and  _216
REMARK   86  A    between atoms: _215  and  _218
REMARK   87  A    between atoms: _218  and  _219
REMARK   88  A    between atoms: _225  and  _227
REMARK   89  A    between atoms: _227  and  _228
REMARK   90  A    between atoms: _227  and  _230
REMARK   91  A    between atoms: _230  and  _231
REMARK   92  A    between atoms: _234  and  _236
REMARK   93  A    between atoms: _236  and  _237
REMARK   94  A    between atoms: _236  and  _239
REMARK   95  A    between atoms: _239  and  _240
REMARK   96  A    between atoms: _245  and  _246
REMARK   97  A    between atoms: _248  and  _250
REMARK   98  A    between atoms: _250  and  _251
REMARK   99  A    between atoms: _250  and  _253
REMARK  100  A    between atoms: _256  and  _258
REMARK  101  A    between atoms: _258  and  _259
REMARK  102  A    between atoms: _258  and  _261
REMARK  103  A    between atoms: _263  and  _265
REMARK  104  A    between atoms: _265  and  _266
REMARK  105  A    between atoms: _269  and  _271
REMARK  106  A    between atoms: _271  and  _272
REMARK  107  A    between atoms: _271  and  _274
REMARK  108  A    between atoms: _277  and  _279
REMARK  109  A    between atoms: _279  and  _280
REMARK  110  A    between atoms: _279  and  _282
REMARK  111  A    between atoms: _285  and  _287
REMARK  112  A    between atoms: _287  and  _288
REMARK  113  A    between atoms: _287  and  _290
REMARK  114  A    between atoms: _290  and  _291
REMARK  115  A    between atoms: _294  and  _296
REMARK  116  A    between atoms: _296  and  _297
REMARK  117  A    between atoms: _296  and  _299
REMARK  118  A    between atoms: _299  and  _300
REMARK  119  A    between atoms: _303  and  _305
REMARK  120  A    between atoms: _305  and  _306
REMARK  121  A    between atoms: _305  and  _308
REMARK  122  A    between atoms: _311  and  _313
REMARK  123  A    between atoms: _313  and  _314
REMARK  124  A    between atoms: _313  and  _316
REMARK  125  A    between atoms: _319  and  _321
REMARK  126  A    between atoms: _321  and  _322
REMARK  127  A    between atoms: _325  and  _327
REMARK  128  A    between atoms: _327  and  _328
REMARK  129  A    between atoms: _327  and  _330
REMARK  130  A    between atoms: _330  and  _331
REMARK  131  A    between atoms: _335  and  _336
REMARK  132  A    between atoms: _341  and  _343
REMARK  133  A    between atoms: _343  and  _344
REMARK  134  A    between atoms: _343  and  _346
REMARK  135  A    between atoms: _346  and  _347
REMARK  136  A    between atoms: _350  and  _352
REMARK  137  A    between atoms: _352  and  _353
REMARK  138  A    between atoms: _356  and  _358
REMARK  139  A    between atoms: _358  and  _359
REMARK  140  A    between atoms: _358  and  _361
REMARK  141  A    between atoms: _361  and  _362
REMARK  142  A    between atoms: _367  and  _369
REMARK  143  A    between atoms: _369  and  _370
REMARK  144  A    between atoms: _372  and  _374
REMARK  145  A    between atoms: _374  and  _375
REMARK  146  A    between atoms: _374  and  _377
REMARK  147  A    between atoms: _380  and  _382
REMARK  148  A    between atoms: _382  and  _383
REMARK  149  A    between atoms: _382  and  _385
REMARK  150  A    between atoms: _385  and  _386
REMARK  151  A    between atoms: _389  and  _391
REMARK  152  A    between atoms: _391  and  _392
REMARK  153  A    between atoms: _391  and  _394
REMARK  154  A    between atoms: _394  and  _395
REMARK  155  A    between atoms: _398  and  _400
REMARK  156  A    between atoms: _400  and  _401
REMARK  157  A    between atoms: _400  and  _403
REMARK  158  A    between atoms: _403  and  _404
REMARK  159  A    between atoms: _407  and  _409
REMARK  160  A    between atoms: _409  and  _410
REMARK  161  A    between atoms: _409  and  _412
REMARK  162  A    between atoms: _412  and  _413
REMARK  163  A    between atoms: _418  and  _420
REMARK  164  A    between atoms: _420  and  _421
REMARK  165  A    between atoms: _420  and  _423
REMARK  166  A    between atoms: _423  and  _424
REMARK  167  A    between atoms: _424  and  _425
REMARK  168  A    between atoms: _430  and  _432
REMARK  169  A    between atoms: _432  and  _433
REMARK  170  A    between atoms: _432  and  _435
REMARK  171  A    between atoms: _435  and  _436
REMARK  172  A    between atoms: _439  and  _441
REMARK  173  A    between atoms: _441  and  _442
REMARK  174  A    between atoms: _441  and  _444
REMARK  175  A    between atoms: _444  and  _445
REMARK  176  A    between atoms: _445  and  _446
REMARK  177  A    between atoms: _446  and  _447
REMARK  178  A    between atoms: _456  and  _458
REMARK  179  A    between atoms: _458  and  _459
REMARK  180  A    between atoms: _458  and  _461
REMARK  181  A    between atoms: _461  and  _462
REMARK  182  A    between atoms: _462  and  _463
REMARK  183  A    between atoms: _466  and  _468
REMARK  184  A    between atoms: _468  and  _469
REMARK  185  A    between atoms: _468  and  _471
REMARK  186  A    between atoms: _471  and  _472
REMARK  187  A    between atoms: _472  and  _473
REMARK  188  A    between atoms: _473  and  _474
REMARK  189  A    between atoms: _474  and  _475
REMARK  190  A    between atoms: _479  and  _481
REMARK  191  A    between atoms: _481  and  _482
REMARK  192  A    between atoms: _484  and  _486
REMARK  193  A    between atoms: _486  and  _487
REMARK  194  A    between atoms: _490  and  _492
REMARK  195  A    between atoms: _492  and  _493
REMARK  196  A    between atoms: _492  and  _495
REMARK  197  A    between atoms: _495  and  _496
REMARK  198  A    between atoms: _496  and  _497
REMARK  199  A    between atoms: _502  and  _504
REMARK  200  A    between atoms: _504  and  _505
REMARK  201  A    between atoms: _508  and  _510
REMARK  202  A    between atoms: _510  and  _511
REMARK  203  A    between atoms: _510  and  _513
REMARK  204  A    between atoms: _513  and  _514
REMARK  205  A    between atoms: _517  and  _519
REMARK  206  A    between atoms: _519  and  _520
REMARK  207  A    between atoms: _519  and  _522
REMARK  208  A    between atoms: _525  and  _527
REMARK  209  A    between atoms: _527  and  _528
REMARK  210  A    between atoms: _531  and  _533
REMARK  211  A    between atoms: _533  and  _534
REMARK  212  A    between atoms: _537  and  _539
REMARK  213  A    between atoms: _539  and  _540
REMARK  214  A    between atoms: _539  and  _542
REMARK  215  A    between atoms: _542  and  _543
REMARK                            x       y       z     vdW  Elec       q    Type
REMARK                         _______ _______ _______ _____ _____    ______ ____
ROOT
ATOM      1  C   VAL A   1     -20.315 -10.470   8.801  0.00  0.00    +0.238 C 
ATOM      2  O   VAL A   1     -19.172 -10.447   9.265  0.00  0.00    -0.274 OA
ATOM      3  N   LEU A   2     -20.568 -10.598   7.504  0.00  0.00    -0.298 N 
ATOM      4  H   LEU A   2     -21.554 -10.669   7.182  0.00  0.00    +0.150 HD
ENDROOT
BRANCH   1   5
ATOM      5  CA  VAL A   1     -21.533 -10.395   9.712  0.00  0.00    +0.145 C 
BRANCH   5   6
ATOM      6  CB  VAL A   1     -21.473  -9.108  10.586  0.00  0.00    +0.025 C 
ATOM      7  CG2 VAL A   1     -22.696  -9.023  11.491  0.00  0.00    +0.002 C 
ATOM      8  CG1 VAL A   1     -21.413  -7.878   9.715  0.00  0.00    +0.002 C 
ENDBRANCH   5   6
BRANCH   5   9
ATOM      9  N   VAL A   1     -21.565 -11.606  10.504  0.00  0.00    -0.238 NA
ATOM     10  H   VAL A   1     -20.971 -11.670  11.355  0.00  0.00    +0.142 HD
ENDBRANCH   5   9
ENDBRANCH   1   5
BRANCH   3  11
ATOM     11  CA  LEU A   2     -19.494 -10.641   6.523  0.00  0.00    +0.137 C 
BRANCH  11  12
ATOM     12  C   LEU A   2     -18.862  -9.278   6.383  0.00  0.00    +0.227 C 
ATOM     13  O   LEU A   2     -19.552  -8.246   6.431  0.00  0.00    -0.286 OA
ENDBRANCH  11  12
BRANCH  11  14
ATOM     14  CB  LEU A   2     -20.041 -11.086   5.156  0.00  0.00    +0.028 C 
BRANCH  14  15
ATOM     15  CG  LEU A   2     -20.624 -12.495   5.134  0.00  0.00    +0.002 C 
ATOM     16  CD2 LEU A   2     -19.508 -13.478   5.362  0.00  0.00    +0.000 C 
ATOM     17  CD1 LEU A   2     -21.354 -12.757   3.805  0.00  0.00    +0.000 C 
ENDBRANCH  14  15
ENDBRANCH  11  14
ENDBRANCH   3  11
TORSDOF 7
REMARK  Name = ../refined-set-2016/2c92/2c92_pocket.pdb
REMARK  215 active torsions:
REMARK  status: ('A' for Active; 'I' for Inactive)
REMARK    1  A    between atoms: _1  and  _3
REMARK    2  A    between atoms: _3  and  _4
REMARK    3  A    between atoms: _7  and  _9
REMARK    4  A    between atoms: _9  and  _10
REMARK    5  A    between atoms: _9  and  _12
REMARK    6  A    between atoms: _12  and  _13
REMARK    7  A    between atoms: _15  and  _17
REMARK    8  A    between atoms: _17  and  _18
REMARK    9  A    between atoms: _17  and  _20
REMARK   10  A    between atoms: _20  and  _21
REMARK   11  A    between atoms: _23  and  _25
REMARK   12  A    between atoms: _25  and  _26
REMARK   13  A    between atoms: _25  and  _28
REMARK   14  A    between atoms: _28  and  _29
REMARK   15  A    between atoms: _39  and  _41
REMARK   16  A    between atoms: _41  and  _42
REMARK   17  A    between atoms: _41  and  _44
REMARK   18  A    between atoms: _44  and  _45
REMARK   19  A    between atoms: _50  and  _52
REMARK   20  A    between atoms: _52  and  _53
REMARK   21  A    between atoms: _52  and  _55
REMARK   22  A    between atoms: _57  and  _59
REMARK   23  A    between atoms: _59  and  _60
REMARK   24  A    between atoms: _59  and  _62
REMARK   25  A    between atoms: _65  and  _67
REMARK   26  A    between atoms: _67  and  _68
REMARK   27  A    between atoms: _67  and  _70
REMARK   28  A    between atoms: _70  and  _71
REMARK   29  A    between atoms: _74  and  _76
REMARK   30  A    between atoms: _76  and  _77
REMARK   31  A    between atoms: _79  and  _81
REMARK   32  A    between atoms: _81  and  _82
REMARK   33  A    between atoms: _85  and  _87
REMARK   34  A    between atoms: _87  and  _88
REMARK   35  A    between atoms: _87  and  _90
REMARK   36  A    between atoms: _90  and  _91
REMARK   37  A    between atoms: _94  and  _96
REMARK   38  A    between atoms: _96  and  _97
REMARK   39  A    between atoms: _96  and  _99
REMARK   40  A    between atoms: _99  and  _100
REMARK   41  A    between atoms: _100  and  _101
REMARK   42  A    between atoms: _104  and  _106
REMARK   43  A    between atoms: _106  and  _107
REMARK   44  A    between atoms: _106  and  _109
REMARK   45  A    between atoms: _109  and  _110
REMARK   46  A    between atoms: _113  and  _115
REMARK   47  A    between atoms: _115  and  _116
REMARK   48  A    between atoms: _115  and  _118
REMARK   49  A    between atoms: _118  and  _119
REMARK   50  A    between atoms: _122  and  _124
REMARK   51  A    between atoms: _124  and  _125
REMARK   52  A    between atoms: _127  and  _129
REMARK   53  A    between atoms: _129  and  _130
REMARK   54  A    between atoms: _129  and  _132
REMARK   55  A    between atoms: _135  and  _137
REMARK   56  A    between atoms: _137  and  _138
REMARK   57  A    between atoms: _137  and  _140
REMARK   58  A    between atoms: _143  and  _145
REMARK   59  A    between atoms: _145  and  _146
REMARK   60  A    between atoms: _145  and  _148
REMARK   61  A    between atoms: _148  and  _149
REMARK   62  A    between atoms: _152  and  _154
REMARK   63  A    between atoms: _154  and  _155
REMARK   64  A    between atoms: _154  and  _157
REMARK   65  A    between atoms: _157  and  _158
REMARK   66  A    between atoms: _158  and  _159
REMARK   67  A    between atoms: _159  and  _160
REMARK   68  A    between atoms: _169  and  _171
REMARK   69  A    between atoms: _171  and  _172
REMARK   70  A    between atoms: _174  and  _176
REMARK   71  A    between atoms: _176  and  _177
REMARK   72  A    between atoms: _176  and  _179
REMARK   73  A    between atoms: _179  and  _180
REMARK   74  A    between atoms: _180  and  _181
REMARK   75  A    between atoms: _186  and  _188
REMARK   76  A    between atoms: _188  and  _189
REMARK   77  A    between atoms: _188  and  _191
REMARK   78  A    between atoms: _191  and  _192
REMARK   79  A    between atoms: _196  and  _197
REMARK   80  A    between atoms: _202  and  _204
REMARK   81  A    between atoms: _204  and  _205
REMARK   82  A    between atoms: _204  and  _207
REMARK   83  A    between atoms: _207  and  _208
REMARK   84  A    between atoms: _213  and  _215
REMARK   85  A    between atoms: _215  and  _216
REMARK   86  A    between atoms: _215  and  _218
REMARK   87  A    between atoms: _218  and  _219
REMARK   88  A    between atoms: _225  and  _227
REMARK   89  A    between atoms: _227  and  _228
REMARK   90  A    between atoms: _227  and  _230
REMARK   91  A    between atoms: _230  and  _231
REMARK   92  A    between atoms: _234  and  _236
REMARK   93  A    between atoms: _236  and  _237
REMARK   94  A    between atoms: _236  and  _239
REMARK   95  A    between atoms: _239  and  _240
REMARK   96  A    between atoms: _245  and  _246
REMARK   97  A    between atoms: _248  and  _250
REMARK   98  A    between atoms: _250  and  _251
REMARK   99  A    between atoms: _250  and  _253
REMARK  100  A    between atoms: _256  and  _258
REMARK  101  A    between atoms: _258  and  _259
REMARK  102  A    between atoms: _258  and  _261
REMARK  103  A    between atoms: _263  and  _265
REMARK  104  A    between atoms: _265  and  _266
REMARK  105  A    between atoms: _269  and  _271
REMARK  106  A    between atoms: _271  and  _272
REMARK  107  A    between atoms: _271  and  _274
REMARK  108  A    between atoms: _277  and  _279
REMARK  109  A    between atoms: _279  and  _280
REMARK  110  A    between atoms: _279  and  _282
REMARK  111  A    between atoms: _285  and  _287
REMARK  112  A    between atoms: _287  and  _288
REMARK  113  A    between atoms: _287  and  _290
REMARK  114  A    between atoms: _290  and  _291
REMARK  115  A    between atoms: _294  and  _296
REMARK  116  A    between atoms: _296  and  _297
REMARK  117  A    between atoms: _296  and  _299
REMARK  118  A    between atoms: _299  and  _300
REMARK  119  A    between atoms: _303  and  _305
REMARK  120  A    between atoms: _305  and  _306
REMARK  121  A    between atoms: _305  and  _308
REMARK  122  A    between atoms: _311  and  _313
REMARK  123  A    between atoms: _313  and  _314
REMARK  124  A    between atoms: _313  and  _316
REMARK  125  A    between atoms: _319  and  _321
REMARK  126  A    between atoms: _321  and  _322
REMARK  127  A    between atoms: _325  and  _327
REMARK  128  A    between atoms: _327  and  _328
REMARK  129  A    between atoms: _327  and  _330
REMARK  130  A    between atoms: _330  and  _331
REMARK  131  A    between atoms: _335  and  _336
REMARK  132  A    between atoms: _341  and  _343
REMARK  133  A    between atoms: _343  and  _344
REMARK  134  A    between atoms: _343  and  _346
REMARK  135  A    between atoms: _346  and  _347
REMARK  136  A    between atoms: _350  and  _352
REMARK  137  A    between atoms: _352  and  _353
REMARK  138  A    between atoms: _356  and  _358
REMARK  139  A    between atoms: _358  and  _359
REMARK  140  A    between atoms: _358  and  _361
REMARK  141  A    between atoms: _361  and  _362
REMARK  142  A    between atoms: _367  and  _369
REMARK  143  A    between atoms: _369  and  _370
REMARK  144  A    between atoms: _372  and  _374
REMARK  145  A    between atoms: _374  and  _375
REMARK  146  A    between atoms: _374  and  _377
REMARK  147  A    between atoms: _380  and  _382
REMARK  148  A    between atoms: _382  and  _383
REMARK  149  A    between atoms: _382  and  _385
REMARK  150  A    between atoms: _385  and  _386
REMARK  151  A    between atoms: _389  and  _391
REMARK  152  A    between atoms: _391  and  _392
REMARK  153  A    between atoms: _391  and  _394
REMARK  154  A    between atoms: _394  and  _395
REMARK  155  A    between atoms: _398  and  _400
REMARK  156  A    between atoms: _400  and  _401
REMARK  157  A    between atoms: _400  and  _403
REMARK  158  A    between atoms: _403  and  _404
REMARK  159  A    between atoms: _407  and  _409
REMARK  160  A    between atoms: _409  and  _410
REMARK  161  A    between atoms: _409  and  _412
REMARK  162  A    between atoms: _412  and  _413
REMARK  163  A    between atoms: _418  and  _420
REMARK  164  A    between atoms: _420  and  _421
REMARK  165  A    between atoms: _420  and  _423
REMARK  166  A    between atoms: _423  and  _424
REMARK  167  A    between atoms: _424  and  _425
REMARK  168  A    between atoms: _430  and  _432
REMARK  169  A    between atoms: _432  and  _433
REMARK  170  A    between atoms: _432  and  _435
REMARK  171  A    between atoms: _435  and  _436
REMARK  172  A    between atoms: _439  and  _441
REMARK  173  A    between atoms: _441  and  _442
REMARK  174  A    between atoms: _441  and  _444
REMARK  175  A    between atoms: _444  and  _445
REMARK  176  A    between atoms: _445  and  _446
REMARK  177  A    between atoms: _446  and  _447
REMARK  178  A    between atoms: _456  and  _458
REMARK  179  A    between atoms: _458  and  _459
REMARK  180  A    between atoms: _458  and  _461
REMARK  181  A    between atoms: _461  and  _462
REMARK  182  A    between atoms: _462  and  _463
REMARK  183  A    between atoms: _466  and  _468
REMARK  184  A    between atoms: _468  and  _469
REMARK  185  A    between atoms: _468  and  _471
REMARK  186  A    between atoms: _471  and  _472
REMARK  187  A    between atoms: _472  and  _473
REMARK  188  A    between atoms: _473  and  _474
REMARK  189  A    between atoms: _474  and  _475
REMARK  190  A    between atoms: _479  and  _481
REMARK  191  A    between atoms: _481  and  _482
REMARK  192  A    between atoms: _484  and  _486
REMARK  193  A    between atoms: _486  and  _487
REMARK  194  A    between atoms: _490  and  _492
REMARK  195  A    between atoms: _492  and  _493
REMARK  196  A    between atoms: _492  and  _495
REMARK  197  A    between atoms: _495  and  _496
REMARK  198  A    between atoms: _496  and  _497
REMARK  199  A    between atoms: _502  and  _504
REMARK  200  A    between atoms: _504  and  _505
REMARK  201  A    between atoms: _508  and  _510
REMARK  202  A    between atoms: _510  and  _511
REMARK  203  A    between atoms: _510  and  _513
REMARK  204  A    between atoms: _513  and  _514
REMARK  205  A    between atoms: _517  and  _519
REMARK  206  A    between atoms: _519  and  _520
REMARK  207  A    between atoms: _519  and  _522
REMARK  208  A    between atoms: _525  and  _527
REMARK  209  A    between atoms: _527  and  _528
REMARK  210  A    between atoms: _531  and  _533
REMARK  211  A    between atoms: _533  and  _534
REMARK  212  A    between atoms: _537  and  _539
REMARK  213  A    between atoms: _539  and  _540
REMARK  214  A    between atoms: _539  and  _542
REMARK  215  A    between atoms: _542  and  _543
REMARK                            x       y       z     vdW  Elec       q    Type
REMARK                         _______ _______ _______ _____ _____    ______ ____
ROOT
ATOM      1  CA  THR A   1     -15.525  -8.242   2.515  0.00  0.00    +0.160 C 
ENDROOT
BRANCH   1   2
ATOM      2  N   THR A   1     -16.287  -7.892   3.700  0.00  0.00    -0.237 NA
ATOM      3  H   THR A   1     -17.175  -7.360   3.606  0.00  0.00    +0.142 HD
ENDBRANCH   1   2
BRANCH   1   4
ATOM      4  C   THR A   1     -15.082  -7.025   1.720  0.00  0.00    +0.227 C 
ATOM      5  O   THR A   1     -15.625  -5.929   1.862  0.00  0.00    -0.287 OA
ENDBRANCH   1   4
BRANCH   1   6
ATOM      6  CB  THR A   1     -16.338  -9.183   1.584  0.00  0.00    +0.134 C 
ATOM      7  CG2 THR A   1     -16.897 -10.372   2.370  0.00  0.00    +0.034 C 
BRANCH   6   8
ATOM      8  OG1 THR A   1     -17.403  -8.461   0.963  0.00  0.00    -0.383 OA
ATOM      9  HG1 THR A   1     -17.913  -9.071   0.373  0.00  0.00    +0.210 HD
ENDBRANCH   6   8
ENDBRANCH   1   6
TORSDOF 4
REMARK  Name = ../refined-set-2016/2c92/2c92_pocket.pdb
REMARK  215 active torsions:
REMARK  status: ('A' for Active; 'I' for Inactive)
REMARK    1  A    between atoms: _1  and  _3
REMARK    2  A    between atoms: _3  and  _4
REMARK    3  A    between atoms: _7  and  _9
REMARK    4  A    between atoms: _9  and  _10
REMARK    5  A    between atoms: _9  and  _12
REMARK    6  A    between atoms: _12  and  _13
REMARK    7  A    between atoms: _15  and  _17
REMARK    8  A    between atoms: _17  and  _18
REMARK    9  A    between atoms: _17  and  _20
REMARK   10  A    between atoms: _20  and  _21
REMARK   11  A    between atoms: _23  and  _25
REMARK   12  A    between atoms: _25  and  _26
REMARK   13  A    between atoms: _25  and  _28
REMARK   14  A    between atoms: _28  and  _29
REMARK   15  A    between atoms: _39  and  _41
REMARK   16  A    between atoms: _41  and  _42
REMARK   17  A    between atoms: _41  and  _44
REMARK   18  A    between atoms: _44  and  _45
REMARK   19  A    between atoms: _50  and  _52
REMARK   20  A    between atoms: _52  and  _53
REMARK   21  A    between atoms: _52  and  _55
REMARK   22  A    between atoms: _57  and  _59
REMARK   23  A    between atoms: _59  and  _60
REMARK   24  A    between atoms: _59  and  _62
REMARK   25  A    between atoms: _65  and  _67
REMARK   26  A    between atoms: _67  and  _68
REMARK   27  A    between atoms: _67  and  _70
REMARK   28  A    between atoms: _70  and  _71
REMARK   29  A    between atoms: _74  and  _76
REMARK   30  A    between atoms: _76  and  _77
REMARK   31  A    between atoms: _79  and  _81
REMARK   32  A    between atoms: _81  and  _82
REMARK   33  A    between atoms: _85  and  _87
REMARK   34  A    between atoms: _87  and  _88
REMARK   35  A    between atoms: _87  and  _90
REMARK   36  A    between atoms: _90  and  _91
REMARK   37  A    between atoms: _94  and  _96
REMARK   38  A    between atoms: _96  and  _97
REMARK   39  A    between atoms: _96  and  _99
REMARK   40  A    between atoms: _99  and  _100
REMARK   41  A    between atoms: _100  and  _101
REMARK   42  A    between atoms: _104  and  _106
REMARK   43  A    between atoms: _106  and  _107
REMARK   44  A    between atoms: _106  and  _109
REMARK   45  A    between atoms: _109  and  _110
REMARK   46  A    between atoms: _113  and  _115
REMARK   47  A    between atoms: _115  and  _116
REMARK   48  A    between atoms: _115  and  _118
REMARK   49  A    between atoms: _118  and  _119
REMARK   50  A    between atoms: _122  and  _124
REMARK   51  A    between atoms: _124  and  _125
REMARK   52  A    between atoms: _127  and  _129
REMARK   53  A    between atoms: _129  and  _130
REMARK   54  A    between atoms: _129  and  _132
REMARK   55  A    between atoms: _135  and  _137
REMARK   56  A    between atoms: _137  and  _138
REMARK   57  A    between atoms: _137  and  _140
REMARK   58  A    between atoms: _143  and  _145
REMARK   59  A    between atoms: _145  and  _146
REMARK   60  A    between atoms: _145  and  _148
REMARK   61  A    between atoms: _148  and  _149
REMARK   62  A    between atoms: _152  and  _154
REMARK   63  A    between atoms: _154  and  _155
REMARK   64  A    between atoms: _154  and  _157
REMARK   65  A    between atoms: _157  and  _158
REMARK   66  A    between atoms: _158  and  _159
REMARK   67  A    between atoms: _159  and  _160
REMARK   68  A    between atoms: _169  and  _171
REMARK   69  A    between atoms: _171  and  _172
REMARK   70  A    between atoms: _174  and  _176
REMARK   71  A    between atoms: _176  and  _177
REMARK   72  A    between atoms: _176  and  _179
REMARK   73  A    between atoms: _179  and  _180
REMARK   74  A    between atoms: _180  and  _181
REMARK   75  A    between atoms: _186  and  _188
REMARK   76  A    between atoms: _188  and  _189
REMARK   77  A    between atoms: _188  and  _191
REMARK   78  A    between atoms: _191  and  _192
REMARK   79  A    between atoms: _196  and  _197
REMARK   80  A    between atoms: _202  and  _204
REMARK   81  A    between atoms: _204  and  _205
REMARK   82  A    between atoms: _204  and  _207
REMARK   83  A    between atoms: _207  and  _208
REMARK   84  A    between atoms: _213  and  _215
REMARK   85  A    between atoms: _215  and  _216
REMARK   86  A    between atoms: _215  and  _218
REMARK   87  A    between atoms: _218  and  _219
REMARK   88  A    between atoms: _225  and  _227
REMARK   89  A    between atoms: _227  and  _228
REMARK   90  A    between atoms: _227  and  _230
REMARK   91  A    between atoms: _230  and  _231
REMARK   92  A    between atoms: _234  and  _236
REMARK   93  A    between atoms: _236  and  _237
REMARK   94  A    between atoms: _236  and  _239
REMARK   95  A    between atoms: _239  and  _240
REMARK   96  A    between atoms: _245  and  _246
REMARK   97  A    between atoms: _248  and  _250
REMARK   98  A    between atoms: _250  and  _251
REMARK   99  A    between atoms: _250  and  _253
REMARK  100  A    between atoms: _256  and  _258
REMARK  101  A    between atoms: _258  and  _259
REMARK  102  A    between atoms: _258  and  _261
REMARK  103  A    between atoms: _263  and  _265
REMARK  104  A    between atoms: _265  and  _266
REMARK  105  A    between atoms: _269  and  _271
REMARK  106  A    between atoms: _271  and  _272
REMARK  107  A    between atoms: _271  and  _274
REMARK  108  A    between atoms: _277  and  _279
REMARK  109  A    between atoms: _279  and  _280
REMARK  110  A    between atoms: _279  and  _282
REMARK  111  A    between atoms: _285  and  _287
REMARK  112  A    between atoms: _287  and  _288
REMARK  113  A    between atoms: _287  and  _290
REMARK  114  A    between atoms: _290  and  _291
REMARK  115  A    between atoms: _294  and  _296
REMARK  116  A    between atoms: _296  and  _297
REMARK  117  A    between atoms: _296  and  _299
REMARK  118  A    between atoms: _299  and  _300
REMARK  119  A    between atoms: _303  and  _305
REMARK  120  A    between atoms: _305  and  _306
REMARK  121  A    between atoms: _305  and  _308
REMARK  122  A    between atoms: _311  and  _313
REMARK  123  A    between atoms: _313  and  _314
REMARK  124  A    between atoms: _313  and  _316
REMARK  125  A    between atoms: _319  and  _321
REMARK  126  A    between atoms: _321  and  _322
REMARK  127  A    between atoms: _325  and  _327
REMARK  128  A    between atoms: _327  and  _328
REMARK  129  A    between atoms: _327  and  _330
REMARK  130  A    between atoms: _330  and  _331
REMARK  131  A    between atoms: _335  and  _336
REMARK  132  A    between atoms: _341  and  _343
REMARK  133  A    between atoms: _343  and  _344
REMARK  134  A    between atoms: _343  and  _346
REMARK  135  A    between atoms: _346  and  _347
REMARK  136  A    between atoms: _350  and  _352
REMARK  137  A    between atoms: _352  and  _353
REMARK  138  A    between atoms: _356  and  _358
REMARK  139  A    between atoms: _358  and  _359
REMARK  140  A    between atoms: _358  and  _361
REMARK  141  A    between atoms: _361  and  _362
REMARK  142  A    between atoms: _367  and  _369
REMARK  143  A    between atoms: _369  and  _370
REMARK  144  A    between atoms: _372  and  _374
REMARK  145  A    between atoms: _374  and  _375
REMARK  146  A    between atoms: _374  and  _377
REMARK  147  A    between atoms: _380  and  _382
REMARK  148  A    between atoms: _382  and  _383
REMARK  149  A    between atoms: _382  and  _385
REMARK  150  A    between atoms: _385  and  _386
REMARK  151  A    between atoms: _389  and  _391
REMARK  152  A    between atoms: _391  and  _392
REMARK  153  A    between atoms: _391  and  _394
REMARK  154  A    between atoms: _394  and  _395
REMARK  155  A    between atoms: _398  and  _400
REMARK  156  A    between atoms: _400  and  _401
REMARK  157  A    between atoms: _400  and  _403
REMARK  158  A    between atoms: _403  and  _404
REMARK  159  A    between atoms: _407  and  _409
REMARK  160  A    between atoms: _409  and  _410
REMARK  161  A    between atoms: _409  and  _412
REMARK  162  A    between atoms: _412  and  _413
REMARK  163  A    between atoms: _418  and  _420
REMARK  164  A    between atoms: _420  and  _421
REMARK  165  A    between atoms: _420  and  _423
REMARK  166  A    between atoms: _423  and  _424
REMARK  167  A    between atoms: _424  and  _425
REMARK  168  A    between atoms: _430  and  _432
REMARK  169  A    between atoms: _432  and  _433
REMARK  170  A    between atoms: _432  and  _435
REMARK  171  A    between atoms: _435  and  _436
REMARK  172  A    between atoms: _439  and  _441
REMARK  173  A    between atoms: _441  and  _442
REMARK  174  A    between atoms: _441  and  _444
REMARK  175  A    between atoms: _444  and  _445
REMARK  176  A    between atoms: _445  and  _446
REMARK  177  A    between atoms: _446  and  _447
REMARK  178  A    between atoms: _456  and  _458
REMARK  179  A    between atoms: _458  and  _459
REMARK  180  A    between atoms: _458  and  _461
REMARK  181  A    between atoms: _461  and  _462
REMARK  182  A    between atoms: _462  and  _463
REMARK  183  A    between atoms: _466  and  _468
REMARK  184  A    between atoms: _468  and  _469
REMARK  185  A    between atoms: _468  and  _471
REMARK  186  A    between atoms: _471  and  _472
REMARK  187  A    between atoms: _472  and  _473
REMARK  188  A    between atoms: _473  and  _474
REMARK  189  A    between atoms: _474  and  _475
REMARK  190  A    between atoms: _479  and  _481
REMARK  191  A    between atoms: _481  and  _482
REMARK  192  A    between atoms: _484  and  _486
REMARK  193  A    between atoms: _486  and  _487
REMARK  194  A    between atoms: _490  and  _492
REMARK  195  A    between atoms: _492  and  _493
REMARK  196  A    between atoms: _492  and  _495
REMARK  197  A    between atoms: _495  and  _496
REMARK  198  A    between atoms: _496  and  _497
REMARK  199  A    between atoms: _502  and  _504
REMARK  200  A    between atoms: _504  and  _505
REMARK  201  A    between atoms: _508  and  _510
REMARK  202  A    between atoms: _510  and  _511
REMARK  203  A    between atoms: _510  and  _513
REMARK  204  A    between atoms: _513  and  _514
REMARK  205  A    between atoms: _517  and  _519
REMARK  206  A    between atoms: _519  and  _520
REMARK  207  A    between atoms: _519  and  _522
REMARK  208  A    between atoms: _525  and  _527
REMARK  209  A    between atoms: _527  and  _528
REMARK  210  A    between atoms: _531  and  _533
REMARK  211  A    between atoms: _533  and  _534
REMARK  212  A    between atoms: _537  and  _539
REMARK  213  A    between atoms: _539  and  _540
REMARK  214  A    between atoms: _539  and  _542
REMARK  215  A    between atoms: _542  and  _543
REMARK                            x       y       z     vdW  Elec       q    Type
REMARK                         _______ _______ _______ _____ _____    ______ ____
ROOT
ATOM      1  CA  VAL A   2     -29.615  10.210  14.231  0.00  0.00    +0.148 C 
ENDROOT
BRANCH   1   4
ATOM      2  C   VAL A   1     -30.345   9.292  16.365  0.00  0.00    +0.238 C 
ATOM      3  O   VAL A   1     -29.837   8.202  16.132  0.00  0.00    -0.274 OA
ATOM      4  N   VAL A   2     -30.368  10.280  15.476  0.00  0.00    -0.297 N 
ATOM      5  H   VAL A   2     -30.939  11.126  15.675  0.00  0.00    +0.150 HD
BRANCH   2   6
ATOM      6  CA  VAL A   1     -31.059   9.552  17.681  0.00  0.00    +0.145 C 
BRANCH   6   7
ATOM      7  CB  VAL A   1     -30.017   9.811  18.811  0.00  0.00    +0.025 C 
ATOM      8  CG2 VAL A   1     -30.721   9.918  20.165  0.00  0.00    +0.002 C 
ATOM      9  CG1 VAL A   1     -29.165  11.069  18.513  0.00  0.00    +0.002 C 
ENDBRANCH   6   7
BRANCH   6  10
ATOM     10  N   VAL A   1     -31.911   8.405  17.960  0.00  0.00    -0.238 NA
ATOM     11  H   VAL A   1     -31.473   7.462  17.973  0.00  0.00    +0.142 HD
ENDBRANCH   6  10
ENDBRANCH   2   6
ENDBRANCH   1   4
BRANCH   1  12
ATOM     12  C   VAL A   2     -28.411  11.144  14.371  0.00  0.00    +0.241 C 
ATOM     13  O   VAL A   2     -28.581  12.310  14.728  0.00  0.00    -0.273 OA
ATOM     14  N   ALA A   3     -27.200  10.618  14.176  0.00  0.00    -0.298 N 
ATOM     15  H   ALA A   3     -27.121   9.596  14.003  0.00  0.00    +0.150 HD
BRANCH  14  16
ATOM     16  CA  ALA A   3     -25.977  11.427  14.197  0.00  0.00    +0.137 C 
ATOM     17  CB  ALA A   3     -24.806  10.664  14.868  0.00  0.00    +0.030 C 
BRANCH  16  18
ATOM     18  C   ALA A   3     -25.614  11.731  12.768  0.00  0.00    +0.227 C 
ATOM     19  O   ALA A   3     -25.467  10.814  11.964  0.00  0.00    -0.286 OA
ENDBRANCH  16  18
ENDBRANCH  14  16
ENDBRANCH   1  12
BRANCH   1  20
ATOM     20  CB  VAL A   2     -30.481  10.650  13.038  0.00  0.00    +0.027 C 
ATOM     21  CG2 VAL A   2     -31.646   9.680  12.849  0.00  0.00    +0.002 C 
ATOM     22  CG1 VAL A   2     -29.624  10.661  11.788  0.00  0.00    +0.002 C 
ENDBRANCH   1  20
TORSDOF 8
REMARK  Name = ../refined-set-2016/2c92/2c92_pocket.pdb
REMARK  215 active torsions:
REMARK  status: ('A' for Active; 'I' for Inactive)
REMARK    1  A    between atoms: _1  and  _3
REMARK    2  A    between atoms: _3  and  _4
REMARK    3  A    between atoms: _7  and  _9
REMARK    4  A    between atoms: _9  and  _10
REMARK    5  A    between atoms: _9  and  _12
REMARK    6  A    between atoms: _12  and  _13
REMARK    7  A    between atoms: _15  and  _17
REMARK    8  A    between atoms: _17  and  _18
REMARK    9  A    between atoms: _17  and  _20
REMARK   10  A    between atoms: _20  and  _21
REMARK   11  A    between atoms: _23  and  _25
REMARK   12  A    between atoms: _25  and  _26
REMARK   13  A    between atoms: _25  and  _28
REMARK   14  A    between atoms: _28  and  _29
REMARK   15  A    between atoms: _39  and  _41
REMARK   16  A    between atoms: _41  and  _42
REMARK   17  A    between atoms: _41  and  _44
REMARK   18  A    between atoms: _44  and  _45
REMARK   19  A    between atoms: _50  and  _52
REMARK   20  A    between atoms: _52  and  _53
REMARK   21  A    between atoms: _52  and  _55
REMARK   22  A    between atoms: _57  and  _59
REMARK   23  A    between atoms: _59  and  _60
REMARK   24  A    between atoms: _59  and  _62
REMARK   25  A    between atoms: _65  and  _67
REMARK   26  A    between atoms: _67  and  _68
REMARK   27  A    between atoms: _67  and  _70
REMARK   28  A    between atoms: _70  and  _71
REMARK   29  A    between atoms: _74  and  _76
REMARK   30  A    between atoms: _76  and  _77
REMARK   31  A    between atoms: _79  and  _81
REMARK   32  A    between atoms: _81  and  _82
REMARK   33  A    between atoms: _85  and  _87
REMARK   34  A    between atoms: _87  and  _88
REMARK   35  A    between atoms: _87  and  _90
REMARK   36  A    between atoms: _90  and  _91
REMARK   37  A    between atoms: _94  and  _96
REMARK   38  A    between atoms: _96  and  _97
REMARK   39  A    between atoms: _96  and  _99
REMARK   40  A    between atoms: _99  and  _100
REMARK   41  A    between atoms: _100  and  _101
REMARK   42  A    between atoms: _104  and  _106
REMARK   43  A    between atoms: _106  and  _107
REMARK   44  A    between atoms: _106  and  _109
REMARK   45  A    between atoms: _109  and  _110
REMARK   46  A    between atoms: _113  and  _115
REMARK   47  A    between atoms: _115  and  _116
REMARK   48  A    between atoms: _115  and  _118
REMARK   49  A    between atoms: _118  and  _119
REMARK   50  A    between atoms: _122  and  _124
REMARK   51  A    between atoms: _124  and  _125
REMARK   52  A    between atoms: _127  and  _129
REMARK   53  A    between atoms: _129  and  _130
REMARK   54  A    between atoms: _129  and  _132
REMARK   55  A    between atoms: _135  and  _137
REMARK   56  A    between atoms: _137  and  _138
REMARK   57  A    between atoms: _137  and  _140
REMARK   58  A    between atoms: _143  and  _145
REMARK   59  A    between atoms: _145  and  _146
REMARK   60  A    between atoms: _145  and  _148
REMARK   61  A    between atoms: _148  and  _149
REMARK   62  A    between atoms: _152  and  _154
REMARK   63  A    between atoms: _154  and  _155
REMARK   64  A    between atoms: _154  and  _157
REMARK   65  A    between atoms: _157  and  _158
REMARK   66  A    between atoms: _158  and  _159
REMARK   67  A    between atoms: _159  and  _160
REMARK   68  A    between atoms: _169  and  _171
REMARK   69  A    between atoms: _171  and  _172
REMARK   70  A    between atoms: _174  and  _176
REMARK   71  A    between atoms: _176  and  _177
REMARK   72  A    between atoms: _176  and  _179
REMARK   73  A    between atoms: _179  and  _180
REMARK   74  A    between atoms: _180  and  _181
REMARK   75  A    between atoms: _186  and  _188
REMARK   76  A    between atoms: _188  and  _189
REMARK   77  A    between atoms: _188  and  _191
REMARK   78  A    between atoms: _191  and  _192
REMARK   79  A    between atoms: _196  and  _197
REMARK   80  A    between atoms: _202  and  _204
REMARK   81  A    between atoms: _204  and  _205
REMARK   82  A    between atoms: _204  and  _207
REMARK   83  A    between atoms: _207  and  _208
REMARK   84  A    between atoms: _213  and  _215
REMARK   85  A    between atoms: _215  and  _216
REMARK   86  A    between atoms: _215  and  _218
REMARK   87  A    between atoms: _218  and  _219
REMARK   88  A    between atoms: _225  and  _227
REMARK   89  A    between atoms: _227  and  _228
REMARK   90  A    between atoms: _227  and  _230
REMARK   91  A    between atoms: _230  and  _231
REMARK   92  A    between atoms: _234  and  _236
REMARK   93  A    between atoms: _236  and  _237
REMARK   94  A    between atoms: _236  and  _239
REMARK   95  A    between atoms: _239  and  _240
REMARK   96  A    between atoms: _245  and  _246
REMARK   97  A    between atoms: _248  and  _250
REMARK   98  A    between atoms: _250  and  _251
REMARK   99  A    between atoms: _250  and  _253
REMARK  100  A    between atoms: _256  and  _258
REMARK  101  A    between atoms: _258  and  _259
REMARK  102  A    between atoms: _258  and  _261
REMARK  103  A    between atoms: _263  and  _265
REMARK  104  A    between atoms: _265  and  _266
REMARK  105  A    between atoms: _269  and  _271
REMARK  106  A    between atoms: _271  and  _272
REMARK  107  A    between atoms: _271  and  _274
REMARK  108  A    between atoms: _277  and  _279
REMARK  109  A    between atoms: _279  and  _280
REMARK  110  A    between atoms: _279  and  _282
REMARK  111  A    between atoms: _285  and  _287
REMARK  112  A    between atoms: _287  and  _288
REMARK  113  A    between atoms: _287  and  _290
REMARK  114  A    between atoms: _290  and  _291
REMARK  115  A    between atoms: _294  and  _296
REMARK  116  A    between atoms: _296  and  _297
REMARK  117  A    between atoms: _296  and  _299
REMARK  118  A    between atoms: _299  and  _300
REMARK  119  A    between atoms: _303  and  _305
REMARK  120  A    between atoms: _305  and  _306
REMARK  121  A    between atoms: _305  and  _308
REMARK  122  A    between atoms: _311  and  _313
REMARK  123  A    between atoms: _313  and  _314
REMARK  124  A    between atoms: _313  and  _316
REMARK  125  A    between atoms: _319  and  _321
REMARK  126  A    between atoms: _321  and  _322
REMARK  127  A    between atoms: _325  and  _327
REMARK  128  A    between atoms: _327  and  _328
REMARK  129  A    between atoms: _327  and  _330
REMARK  130  A    between atoms: _330  and  _331
REMARK  131  A    between atoms: _335  and  _336
REMARK  132  A    between atoms: _341  and  _343
REMARK  133  A    between atoms: _343  and  _344
REMARK  134  A    between atoms: _343  and  _346
REMARK  135  A    between atoms: _346  and  _347
REMARK  136  A    between atoms: _350  and  _352
REMARK  137  A    between atoms: _352  and  _353
REMARK  138  A    between atoms: _356  and  _358
REMARK  139  A    between atoms: _358  and  _359
REMARK  140  A    between atoms: _358  and  _361
REMARK  141  A    between atoms: _361  and  _362
REMARK  142  A    between atoms: _367  and  _369
REMARK  143  A    between atoms: _369  and  _370
REMARK  144  A    between atoms: _372  and  _374
REMARK  145  A    between atoms: _374  and  _375
REMARK  146  A    between atoms: _374  and  _377
REMARK  147  A    between atoms: _380  and  _382
REMARK  148  A    between atoms: _382  and  _383
REMARK  149  A    between atoms: _382  and  _385
REMARK  150  A    between atoms: _385  and  _386
REMARK  151  A    between atoms: _389  and  _391
REMARK  152  A    between atoms: _391  and  _392
REMARK  153  A    between atoms: _391  and  _394
REMARK  154  A    between atoms: _394  and  _395
REMARK  155  A    between atoms: _398  and  _400
REMARK  156  A    between atoms: _400  and  _401
REMARK  157  A    between atoms: _400  and  _403
REMARK  158  A    between atoms: _403  and  _404
REMARK  159  A    between atoms: _407  and  _409
REMARK  160  A    between atoms: _409  and  _410
REMARK  161  A    between atoms: _409  and  _412
REMARK  162  A    between atoms: _412  and  _413
REMARK  163  A    between atoms: _418  and  _420
REMARK  164  A    between atoms: _420  and  _421
REMARK  165  A    between atoms: _420  and  _423
REMARK  166  A    between atoms: _423  and  _424
REMARK  167  A    between atoms: _424  and  _425
REMARK  168  A    between atoms: _430  and  _432
REMARK  169  A    between atoms: _432  and  _433
REMARK  170  A    between atoms: _432  and  _435
REMARK  171  A    between atoms: _435  and  _436
REMARK  172  A    between atoms: _439  and  _441
REMARK  173  A    between atoms: _441  and  _442
REMARK  174  A    between atoms: _441  and  _444
REMARK  175  A    between atoms: _444  and  _445
REMARK  176  A    between atoms: _445  and  _446
REMARK  177  A    between atoms: _446  and  _447
REMARK  178  A    between atoms: _456  and  _458
REMARK  179  A    between atoms: _458  and  _459
REMARK  180  A    between atoms: _458  and  _461
REMARK  181  A    between atoms: _461  and  _462
REMARK  182  A    between atoms: _462  and  _463
REMARK  183  A    between atoms: _466  and  _468
REMARK  184  A    between atoms: _468  and  _469
REMARK  185  A    between atoms: _468  and  _471
REMARK  186  A    between atoms: _471  and  _472
REMARK  187  A    between atoms: _472  and  _473
REMARK  188  A    between atoms: _473  and  _474
REMARK  189  A    between atoms: _474  and  _475
REMARK  190  A    between atoms: _479  and  _481
REMARK  191  A    between atoms: _481  and  _482
REMARK  192  A    between atoms: _484  and  _486
REMARK  193  A    between atoms: _486  and  _487
REMARK  194  A    between atoms: _490  and  _492
REMARK  195  A    between atoms: _492  and  _493
REMARK  196  A    between atoms: _492  and  _495
REMARK  197  A    between atoms: _495  and  _496
REMARK  198  A    between atoms: _496  and  _497
REMARK  199  A    between atoms: _502  and  _504
REMARK  200  A    between atoms: _504  and  _505
REMARK  201  A    between atoms: _508  and  _510
REMARK  202  A    between atoms: _510  and  _511
REMARK  203  A    between atoms: _510  and  _513
REMARK  204  A    between atoms: _513  and  _514
REMARK  205  A    between atoms: _517  and  _519
REMARK  206  A    between atoms: _519  and  _520
REMARK  207  A    between atoms: _519  and  _522
REMARK  208  A    between atoms: _525  and  _527
REMARK  209  A    between atoms: _527  and  _528
REMARK  210  A    between atoms: _531  and  _533
REMARK  211  A    between atoms: _533  and  _534
REMARK  212  A    between atoms: _537  and  _539
REMARK  213  A    between atoms: _539  and  _540
REMARK  214  A    between atoms: _539  and  _542
REMARK  215  A    between atoms: _542  and  _543
REMARK                            x       y       z     vdW  Elec       q    Type
REMARK                         _______ _______ _______ _____ _____    ______ ____
ROOT
ATOM      1  CA  LEU A   1     -21.832   6.408  19.362  0.00  0.00    +0.133 C 
ENDROOT
BRANCH   1   2
ATOM      2  N   LEU A   1     -20.457   6.701  19.753  0.00  0.00    -0.239 NA
ATOM      3  H   LEU A   1     -19.745   6.900  19.022  0.00  0.00    +0.142 HD
ENDBRANCH   1   2
BRANCH   1   4
ATOM      4  C   LEU A   1     -22.185   4.977  19.708  0.00  0.00    +0.224 C 
ATOM      5  O   LEU A   1     -23.303   4.712  20.138  0.00  0.00    -0.287 OA
ENDBRANCH   1   4
BRANCH   1   6
ATOM      6  CB  LEU A   1     -22.069   6.636  17.874  0.00  0.00    +0.025 C 
BRANCH   6   7
ATOM      7  CG  LEU A   1     -21.932   8.075  17.379  0.00  0.00    +0.002 C 
ATOM      8  CD2 LEU A   1     -22.757   9.046  18.194  0.00  0.00    +0.000 C 
ATOM      9  CD1 LEU A   1     -22.352   8.128  15.921  0.00  0.00    +0.000 C 
ENDBRANCH   6   7
ENDBRANCH   1   6
TORSDOF 4
REMARK  Name = ../refined-set-2016/2c92/2c92_pocket.pdb
REMARK  215 active torsions:
REMARK  status: ('A' for Active; 'I' for Inactive)
REMARK    1  A    between atoms: _1  and  _3
REMARK    2  A    between atoms: _3  and  _4
REMARK    3  A    between atoms: _7  and  _9
REMARK    4  A    between atoms: _9  and  _10
REMARK    5  A    between atoms: _9  and  _12
REMARK    6  A    between atoms: _12  and  _13
REMARK    7  A    between atoms: _15  and  _17
REMARK    8  A    between atoms: _17  and  _18
REMARK    9  A    between atoms: _17  and  _20
REMARK   10  A    between atoms: _20  and  _21
REMARK   11  A    between atoms: _23  and  _25
REMARK   12  A    between atoms: _25  and  _26
REMARK   13  A    between atoms: _25  and  _28
REMARK   14  A    between atoms: _28  and  _29
REMARK   15  A    between atoms: _39  and  _41
REMARK   16  A    between atoms: _41  and  _42
REMARK   17  A    between atoms: _41  and  _44
REMARK   18  A    between atoms: _44  and  _45
REMARK   19  A    between atoms: _50  and  _52
REMARK   20  A    between atoms: _52  and  _53
REMARK   21  A    between atoms: _52  and  _55
REMARK   22  A    between atoms: _57  and  _59
REMARK   23  A    between atoms: _59  and  _60
REMARK   24  A    between atoms: _59  and  _62
REMARK   25  A    between atoms: _65  and  _67
REMARK   26  A    between atoms: _67  and  _68
REMARK   27  A    between atoms: _67  and  _70
REMARK   28  A    between atoms: _70  and  _71
REMARK   29  A    between atoms: _74  and  _76
REMARK   30  A    between atoms: _76  and  _77
REMARK   31  A    between atoms: _79  and  _81
REMARK   32  A    between atoms: _81  and  _82
REMARK   33  A    between atoms: _85  and  _87
REMARK   34  A    between atoms: _87  and  _88
REMARK   35  A    between atoms: _87  and  _90
REMARK   36  A    between atoms: _90  and  _91
REMARK   37  A    between atoms: _94  and  _96
REMARK   38  A    between atoms: _96  and  _97
REMARK   39  A    between atoms: _96  and  _99
REMARK   40  A    between atoms: _99  and  _100
REMARK   41  A    between atoms: _100  and  _101
REMARK   42  A    between atoms: _104  and  _106
REMARK   43  A    between atoms: _106  and  _107
REMARK   44  A    between atoms: _106  and  _109
REMARK   45  A    between atoms: _109  and  _110
REMARK   46  A    between atoms: _113  and  _115
REMARK   47  A    between atoms: _115  and  _116
REMARK   48  A    between atoms: _115  and  _118
REMARK   49  A    between atoms: _118  and  _119
REMARK   50  A    between atoms: _122  and  _124
REMARK   51  A    between atoms: _124  and  _125
REMARK   52  A    between atoms: _127  and  _129
REMARK   53  A    between atoms: _129  and  _130
REMARK   54  A    between atoms: _129  and  _132
REMARK   55  A    between atoms: _135  and  _137
REMARK   56  A    between atoms: _137  and  _138
REMARK   57  A    between atoms: _137  and  _140
REMARK   58  A    between atoms: _143  and  _145
REMARK   59  A    between atoms: _145  and  _146
REMARK   60  A    between atoms: _145  and  _148
REMARK   61  A    between atoms: _148  and  _149
REMARK   62  A    between atoms: _152  and  _154
REMARK   63  A    between atoms: _154  and  _155
REMARK   64  A    between atoms: _154  and  _157
REMARK   65  A    between atoms: _157  and  _158
REMARK   66  A    between atoms: _158  and  _159
REMARK   67  A    between atoms: _159  and  _160
REMARK   68  A    between atoms: _169  and  _171
REMARK   69  A    between atoms: _171  and  _172
REMARK   70  A    between atoms: _174  and  _176
REMARK   71  A    between atoms: _176  and  _177
REMARK   72  A    between atoms: _176  and  _179
REMARK   73  A    between atoms: _179  and  _180
REMARK   74  A    between atoms: _180  and  _181
REMARK   75  A    between atoms: _186  and  _188
REMARK   76  A    between atoms: _188  and  _189
REMARK   77  A    between atoms: _188  and  _191
REMARK   78  A    between atoms: _191  and  _192
REMARK   79  A    between atoms: _196  and  _197
REMARK   80  A    between atoms: _202  and  _204
REMARK   81  A    between atoms: _204  and  _205
REMARK   82  A    between atoms: _204  and  _207
REMARK   83  A    between atoms: _207  and  _208
REMARK   84  A    between atoms: _213  and  _215
REMARK   85  A    between atoms: _215  and  _216
REMARK   86  A    between atoms: _215  and  _218
REMARK   87  A    between atoms: _218  and  _219
REMARK   88  A    between atoms: _225  and  _227
REMARK   89  A    between atoms: _227  and  _228
REMARK   90  A    between atoms: _227  and  _230
REMARK   91  A    between atoms: _230  and  _231
REMARK   92  A    between atoms: _234  and  _236
REMARK   93  A    between atoms: _236  and  _237
REMARK   94  A    between atoms: _236  and  _239
REMARK   95  A    between atoms: _239  and  _240
REMARK   96  A    between atoms: _245  and  _246
REMARK   97  A    between atoms: _248  and  _250
REMARK   98  A    between atoms: _250  and  _251
REMARK   99  A    between atoms: _250  and  _253
REMARK  100  A    between atoms: _256  and  _258
REMARK  101  A    between atoms: _258  and  _259
REMARK  102  A    between atoms: _258  and  _261
REMARK  103  A    between atoms: _263  and  _265
REMARK  104  A    between atoms: _265  and  _266
REMARK  105  A    between atoms: _269  and  _271
REMARK  106  A    between atoms: _271  and  _272
REMARK  107  A    between atoms: _271  and  _274
REMARK  108  A    between atoms: _277  and  _279
REMARK  109  A    between atoms: _279  and  _280
REMARK  110  A    between atoms: _279  and  _282
REMARK  111  A    between atoms: _285  and  _287
REMARK  112  A    between atoms: _287  and  _288
REMARK  113  A    between atoms: _287  and  _290
REMARK  114  A    between atoms: _290  and  _291
REMARK  115  A    between atoms: _294  and  _296
REMARK  116  A    between atoms: _296  and  _297
REMARK  117  A    between atoms: _296  and  _299
REMARK  118  A    between atoms: _299  and  _300
REMARK  119  A    between atoms: _303  and  _305
REMARK  120  A    between atoms: _305  and  _306
REMARK  121  A    between atoms: _305  and  _308
REMARK  122  A    between atoms: _311  and  _313
REMARK  123  A    between atoms: _313  and  _314
REMARK  124  A    between atoms: _313  and  _316
REMARK  125  A    between atoms: _319  and  _321
REMARK  126  A    between atoms: _321  and  _322
REMARK  127  A    between atoms: _325  and  _327
REMARK  128  A    between atoms: _327  and  _328
REMARK  129  A    between atoms: _327  and  _330
REMARK  130  A    between atoms: _330  and  _331
REMARK  131  A    between atoms: _335  and  _336
REMARK  132  A    between atoms: _341  and  _343
REMARK  133  A    between atoms: _343  and  _344
REMARK  134  A    between atoms: _343  and  _346
REMARK  135  A    between atoms: _346  and  _347
REMARK  136  A    between atoms: _350  and  _352
REMARK  137  A    between atoms: _352  and  _353
REMARK  138  A    between atoms: _356  and  _358
REMARK  139  A    between atoms: _358  and  _359
REMARK  140  A    between atoms: _358  and  _361
REMARK  141  A    between atoms: _361  and  _362
REMARK  142  A    between atoms: _367  and  _369
REMARK  143  A    between atoms: _369  and  _370
REMARK  144  A    between atoms: _372  and  _374
REMARK  145  A    between atoms: _374  and  _375
REMARK  146  A    between atoms: _374  and  _377
REMARK  147  A    between atoms: _380  and  _382
REMARK  148  A    between atoms: _382  and  _383
REMARK  149  A    between atoms: _382  and  _385
REMARK  150  A    between atoms: _385  and  _386
REMARK  151  A    between atoms: _389  and  _391
REMARK  152  A    between atoms: _391  and  _392
REMARK  153  A    between atoms: _391  and  _394
REMARK  154  A    between atoms: _394  and  _395
REMARK  155  A    between atoms: _398  and  _400
REMARK  156  A    between atoms: _400  and  _401
REMARK  157  A    between atoms: _400  and  _403
REMARK  158  A    between atoms: _403  and  _404
REMARK  159  A    between atoms: _407  and  _409
REMARK  160  A    between atoms: _409  and  _410
REMARK  161  A    between atoms: _409  and  _412
REMARK  162  A    between atoms: _412  and  _413
REMARK  163  A    between atoms: _418  and  _420
REMARK  164  A    between atoms: _420  and  _421
REMARK  165  A    between atoms: _420  and  _423
REMARK  166  A    between atoms: _423  and  _424
REMARK  167  A    between atoms: _424  and  _425
REMARK  168  A    between atoms: _430  and  _432
REMARK  169  A    between atoms: _432  and  _433
REMARK  170  A    between atoms: _432  and  _435
REMARK  171  A    between atoms: _435  and  _436
REMARK  172  A    between atoms: _439  and  _441
REMARK  173  A    between atoms: _441  and  _442
REMARK  174  A    between atoms: _441  and  _444
REMARK  175  A    between atoms: _444  and  _445
REMARK  176  A    between atoms: _445  and  _446
REMARK  177  A    between atoms: _446  and  _447
REMARK  178  A    between atoms: _456  and  _458
REMARK  179  A    between atoms: _458  and  _459
REMARK  180  A    between atoms: _458  and  _461
REMARK  181  A    between atoms: _461  and  _462
REMARK  182  A    between atoms: _462  and  _463
REMARK  183  A    between atoms: _466  and  _468
REMARK  184  A    between atoms: _468  and  _469
REMARK  185  A    between atoms: _468  and  _471
REMARK  186  A    between atoms: _471  and  _472
REMARK  187  A    between atoms: _472  and  _473
REMARK  188  A    between atoms: _473  and  _474
REMARK  189  A    between atoms: _474  and  _475
REMARK  190  A    between atoms: _479  and  _481
REMARK  191  A    between atoms: _481  and  _482
REMARK  192  A    between atoms: _484  and  _486
REMARK  193  A    between atoms: _486  and  _487
REMARK  194  A    between atoms: _490  and  _492
REMARK  195  A    between atoms: _492  and  _493
REMARK  196  A    between atoms: _492  and  _495
REMARK  197  A    between atoms: _495  and  _496
REMARK  198  A    between atoms: _496  and  _497
REMARK  199  A    between atoms: _502  and  _504
REMARK  200  A    between atoms: _504  and  _505
REMARK  201  A    between atoms: _508  and  _510
REMARK  202  A    between atoms: _510  and  _511
REMARK  203  A    between atoms: _510  and  _513
REMARK  204  A    between atoms: _513  and  _514
REMARK  205  A    between atoms: _517  and  _519
REMARK  206  A    between atoms: _519  and  _520
REMARK  207  A    between atoms: _519  and  _522
REMARK  208  A    between atoms: _525  and  _527
REMARK  209  A    between atoms: _527  and  _528
REMARK  210  A    between atoms: _531  and  _533
REMARK  211  A    between atoms: _533  and  _534
REMARK  212  A    between atoms: _537  and  _539
REMARK  213  A    between atoms: _539  and  _540
REMARK  214  A    between atoms: _539  and  _542
REMARK  215  A    between atoms: _542  and  _543
REMARK                            x       y       z     vdW  Elec       q    Type
REMARK                         _______ _______ _______ _____ _____    ______ ____
ROOT
ATOM      1  CA  VAL A   6     -21.518  10.568   9.808  0.00  0.00    +0.149 C 
ENDROOT
BRANCH   1   2
ATOM      2  C   VAL A   6     -20.656  10.042   8.670  0.00  0.00    +0.241 C 
ATOM      3  O   VAL A   6     -20.124   8.936   8.733  0.00  0.00    -0.273 OA
ATOM      4  N   LEU A   7     -20.545  10.844   7.617  0.00  0.00    -0.297 N 
ATOM      5  H   LEU A   7     -21.054  11.751   7.605  0.00  0.00    +0.150 HD
BRANCH   4   6
ATOM      6  CA  LEU A   7     -19.724  10.469   6.488  0.00  0.00    +0.149 C 
BRANCH   6   7
ATOM      7  C   LEU A   7     -18.254  10.501   6.872  0.00  0.00    +0.241 C 
ATOM      8  O   LEU A   7     -17.807  11.370   7.622  0.00  0.00    -0.273 OA
ATOM      9  N   THR A   8     -17.507   9.551   6.339  0.00  0.00    -0.295 N 
ATOM     10  H   THR A   8     -17.951   8.833   5.732  0.00  0.00    +0.150 HD
BRANCH   9  11
ATOM     11  CA  THR A   8     -16.079   9.490   6.584  0.00  0.00    +0.176 C 
BRANCH  11  12
ATOM     12  C   THR A   8     -15.420   9.234   5.236  0.00  0.00    +0.243 C 
ATOM     13  O   THR A   8     -15.340   8.098   4.792  0.00  0.00    -0.273 OA
ATOM     14  N   THR A   9     -15.008  10.310   4.564  0.00  0.00    -0.295 N 
ATOM     15  H   THR A   9     -15.006  11.239   5.031  0.00  0.00    +0.150 HD
BRANCH  14  16
ATOM     16  CA  THR A   9     -14.561  10.197   3.181  0.00  0.00    +0.176 C 
BRANCH  16  17
ATOM     17  C   THR A   9     -13.128  10.665   3.013  0.00  0.00    +0.243 C 
ATOM     18  O   THR A   9     -12.588  11.360   3.871  0.00  0.00    -0.273 OA
ATOM     19  N   ASN A  10     -12.516  10.274   1.905  0.00  0.00    -0.298 N 
ATOM     20  H   ASN A  10     -12.981   9.598   1.266  0.00  0.00    +0.150 HD
BRANCH  19  21
ATOM     21  CA  ASN A  10     -11.195  10.788   1.580  0.00  0.00    +0.146 C 
BRANCH  21  22
ATOM     22  C   ASN A  10     -11.273  12.155   0.927  0.00  0.00    +0.227 C 
ATOM     23  O   ASN A  10     -10.362  12.965   1.090  0.00  0.00    -0.286 OA
ENDBRANCH  21  22
BRANCH  21  24
ATOM     24  CB  ASN A  10     -10.455   9.809   0.683  0.00  0.00    +0.112 C 
BRANCH  24  25
ATOM     25  CG  ASN A  10     -10.115   8.531   1.408  0.00  0.00    +0.222 C 
ATOM     26  OD1 ASN A  10      -9.718   8.569   2.574  0.00  0.00    -0.275 OA
ATOM     27  ND2 ASN A  10     -10.283   7.397   0.742  0.00  0.00    -0.329 N 
ATOM     28 HD21 ASN A  10     -10.077   6.488   1.203  0.00  0.00    +0.145 HD
ATOM     29 HD22 ASN A  10     -10.621   7.417  -0.241  0.00  0.00    +0.145 HD
ENDBRANCH  24  25
ENDBRANCH  21  24
ENDBRANCH  19  21
ENDBRANCH  16  17
BRANCH  16  30
ATOM     30  CB  THR A   9     -15.476  11.016   2.220  0.00  0.00    +0.137 C 
ATOM     31  CG2 THR A   9     -16.925  10.567   2.345  0.00  0.00    +0.034 C 
BRANCH  30  32
ATOM     32  OG1 THR A   9     -15.376  12.395   2.549  0.00  0.00    -0.382 OA
ATOM     33  HG1 THR A   9     -15.955  12.921   1.942  0.00  0.00    +0.210 HD
ENDBRANCH  30  32
ENDBRANCH  16  30
ENDBRANCH  14  16
ENDBRANCH  11  12
BRANCH  11  34
ATOM     34  CB  THR A   8     -15.751   8.351   7.586  0.00  0.00    +0.137 C 
ATOM     35  CG2 THR A   8     -16.428   8.591   8.936  0.00  0.00    +0.034 C 
BRANCH  34  36
ATOM     36  OG1 THR A   8     -16.201   7.109   7.041  0.00  0.00    -0.382 OA
ATOM     37  HG1 THR A   8     -15.740   6.941   6.181  0.00  0.00    +0.210 HD
ENDBRANCH  34  36
ENDBRANCH  11  34
ENDBRANCH   9  11
ENDBRANCH   6   7
BRANCH   6  38
ATOM     38  CB  LEU A   7     -19.984  11.411   5.301  0.00  0.00    +0.029 C 
BRANCH  38  39
ATOM     39  CG  LEU A   7     -21.388  11.345   4.698  0.00  0.00    +0.002 C 
ATOM     40  CD2 LEU A   7     -21.612   9.985   4.089  0.00  0.00    +0.000 C 
ATOM     41  CD1 LEU A   7     -21.532  12.452   3.629  0.00  0.00    +0.000 C 
ENDBRANCH  38  39
ENDBRANCH   6  38
ENDBRANCH   4   6
ENDBRANCH   1   2
BRANCH   1  43
ATOM     42  C   GLY A   5     -23.880  10.228   9.284  0.00  0.00    +0.243 C 
ATOM     43  N   VAL A   6     -22.748   9.773   9.834  0.00  0.00    -0.297 N 
ATOM     44  H   VAL A   6     -22.741   8.838  10.288  0.00  0.00    +0.150 HD
ATOM     45  O   GLY A   5     -23.955  11.329   8.718  0.00  0.00    -0.273 OA
BRANCH  42  46
ATOM     46  CA  GLY A   5     -25.098   9.326   9.396  0.00  0.00    +0.176 C 
BRANCH  46  48
ATOM     47  C   ASN A   4     -24.727   7.294  10.716  0.00  0.00    +0.241 C 
ATOM     48  N   GLY A   5     -25.041   8.578  10.653  0.00  0.00    -0.295 N 
ATOM     49  H   GLY A   5     -25.257   9.079  11.538  0.00  0.00    +0.150 HD
ATOM     50  O   ASN A   4     -24.655   6.555   9.718  0.00  0.00    -0.273 OA
BRANCH  47  51
ATOM     51  CA  ASN A   4     -24.527   6.758  12.143  0.00  0.00    +0.158 C 
BRANCH  51  54
ATOM     52  C   ALA A   3     -26.676   6.716  13.316  0.00  0.00    +0.241 C 
ATOM     53  O   ALA A   3     -26.585   7.904  13.627  0.00  0.00    -0.273 OA
ATOM     54  N   ASN A   4     -25.748   6.078  12.603  0.00  0.00    -0.297 N 
ATOM     55  H   ASN A   4     -25.890   5.075  12.366  0.00  0.00    +0.150 HD
BRANCH  52  56
ATOM     56  CA  ALA A   3     -27.887   5.894  13.774  0.00  0.00    +0.149 C 
ATOM     57  CB  ALA A   3     -29.104   6.157  12.892  0.00  0.00    +0.031 C 
BRANCH  56  60
ATOM     58  C   ILE A   2     -27.483   5.705  16.132  0.00  0.00    +0.241 C 
ATOM     59  O   ILE A   2     -26.456   5.079  15.926  0.00  0.00    -0.273 OA
ATOM     60  N   ALA A   3     -28.227   6.193  15.146  0.00  0.00    -0.297 N 
ATOM     61  H   ALA A   3     -29.052   6.789  15.361  0.00  0.00    +0.150 HD
BRANCH  58  62
ATOM     62  CA  ILE A   2     -27.993   5.928  17.547  0.00  0.00    +0.148 C 
BRANCH  62  65
ATOM     63  C   PRO A   1     -29.999   4.693  18.175  0.00  0.00    +0.239 C 
ATOM     64  O   PRO A   1     -30.682   5.704  18.340  0.00  0.00    -0.274 OA
ATOM     65  N   ILE A   2     -28.707   4.706  17.875  0.00  0.00    -0.297 N 
ATOM     66  H   ILE A   2     -28.185   3.807  17.875  0.00  0.00    +0.150 HD
BRANCH  63  71
ATOM     67  N   PRO A   1     -31.367   3.245  19.619  0.00  0.00    -0.210 NA
ATOM     68  CD  PRO A   1     -32.802   2.995  19.407  0.00  0.00    +0.089 C 
ATOM     69  CG  PRO A   1     -32.850   2.509  17.962  0.00  0.00    +0.021 C 
ATOM     70  CB  PRO A   1     -31.670   3.067  17.268  0.00  0.00    +0.028 C 
ATOM     71  CA  PRO A   1     -30.613   3.306  18.353  0.00  0.00    +0.149 C 
ENDBRANCH  63  71
ENDBRANCH  62  65
BRANCH  62  72
ATOM     72  CB  ILE A   2     -26.817   6.192  18.530  0.00  0.00    +0.027 C 
ATOM     73  CG2 ILE A   2     -26.216   7.558  18.286  0.00  0.00    +0.002 C 
BRANCH  72  74
ATOM     74  CG1 ILE A   2     -27.280   6.046  19.995  0.00  0.00    +0.002 C 
ATOM     75  CD1 ILE A   2     -28.377   7.033  20.449  0.00  0.00    +0.000 C 
ENDBRANCH  72  74
ENDBRANCH  62  72
ENDBRANCH  58  62
ENDBRANCH  56  60
ENDBRANCH  52  56
ENDBRANCH  51  54
BRANCH  51  76
ATOM     76  CB  ASN A   4     -23.300   5.828  12.256  0.00  0.00    +0.114 C 
BRANCH  76  77
ATOM     77  CG  ASN A   4     -21.968   6.578  12.122  0.00  0.00    +0.222 C 
ATOM     78  ND2 ASN A   4     -20.947   6.140  12.876  0.00  0.00    -0.329 N 
ATOM     79 HD21 ASN A   4     -21.083   5.333  13.518  0.00  0.00    +0.145 HD
ATOM     80 HD22 ASN A   4     -20.020   6.607  12.818  0.00  0.00    +0.145 HD
ATOM     81  OD1 ASN A   4     -21.859   7.532  11.343  0.00  0.00    -0.275 OA
ENDBRANCH  76  77
ENDBRANCH  51  76
ENDBRANCH  47  51
ENDBRANCH  46  48
ENDBRANCH  42  46
ENDBRANCH   1  43
BRANCH   1  82
ATOM     82  CB  VAL A   6     -20.733  10.541  11.161  0.00  0.00    +0.027 C 
ATOM     83  CG2 VAL A   6     -21.556  11.155  12.266  0.00  0.00    +0.002 C 
ATOM     84  CG1 VAL A   6     -19.417  11.302  11.030  0.00  0.00    +0.002 C 
ENDBRANCH   1  82
TORSDOF 32
REMARK  Name = ../refined-set-2016/2c92/2c92_pocket.pdb
REMARK  215 active torsions:
REMARK  status: ('A' for Active; 'I' for Inactive)
REMARK    1  A    between atoms: _1  and  _3
REMARK    2  A    between atoms: _3  and  _4
REMARK    3  A    between atoms: _7  and  _9
REMARK    4  A    between atoms: _9  and  _10
REMARK    5  A    between atoms: _9  and  _12
REMARK    6  A    between atoms: _12  and  _13
REMARK    7  A    between atoms: _15  and  _17
REMARK    8  A    between atoms: _17  and  _18
REMARK    9  A    between atoms: _17  and  _20
REMARK   10  A    between atoms: _20  and  _21
REMARK   11  A    between atoms: _23  and  _25
REMARK   12  A    between atoms: _25  and  _26
REMARK   13  A    between atoms: _25  and  _28
REMARK   14  A    between atoms: _28  and  _29
REMARK   15  A    between atoms: _39  and  _41
REMARK   16  A    between atoms: _41  and  _42
REMARK   17  A    between atoms: _41  and  _44
REMARK   18  A    between atoms: _44  and  _45
REMARK   19  A    between atoms: _50  and  _52
REMARK   20  A    between atoms: _52  and  _53
REMARK   21  A    between atoms: _52  and  _55
REMARK   22  A    between atoms: _57  and  _59
REMARK   23  A    between atoms: _59  and  _60
REMARK   24  A    between atoms: _59  and  _62
REMARK   25  A    between atoms: _65  and  _67
REMARK   26  A    between atoms: _67  and  _68
REMARK   27  A    between atoms: _67  and  _70
REMARK   28  A    between atoms: _70  and  _71
REMARK   29  A    between atoms: _74  and  _76
REMARK   30  A    between atoms: _76  and  _77
REMARK   31  A    between atoms: _79  and  _81
REMARK   32  A    between atoms: _81  and  _82
REMARK   33  A    between atoms: _85  and  _87
REMARK   34  A    between atoms: _87  and  _88
REMARK   35  A    between atoms: _87  and  _90
REMARK   36  A    between atoms: _90  and  _91
REMARK   37  A    between atoms: _94  and  _96
REMARK   38  A    between atoms: _96  and  _97
REMARK   39  A    between atoms: _96  and  _99
REMARK   40  A    between atoms: _99  and  _100
REMARK   41  A    between atoms: _100  and  _101
REMARK   42  A    between atoms: _104  and  _106
REMARK   43  A    between atoms: _106  and  _107
REMARK   44  A    between atoms: _106  and  _109
REMARK   45  A    between atoms: _109  and  _110
REMARK   46  A    between atoms: _113  and  _115
REMARK   47  A    between atoms: _115  and  _116
REMARK   48  A    between atoms: _115  and  _118
REMARK   49  A    between atoms: _118  and  _119
REMARK   50  A    between atoms: _122  and  _124
REMARK   51  A    between atoms: _124  and  _125
REMARK   52  A    between atoms: _127  and  _129
REMARK   53  A    between atoms: _129  and  _130
REMARK   54  A    between atoms: _129  and  _132
REMARK   55  A    between atoms: _135  and  _137
REMARK   56  A    between atoms: _137  and  _138
REMARK   57  A    between atoms: _137  and  _140
REMARK   58  A    between atoms: _143  and  _145
REMARK   59  A    between atoms: _145  and  _146
REMARK   60  A    between atoms: _145  and  _148
REMARK   61  A    between atoms: _148  and  _149
REMARK   62  A    between atoms: _152  and  _154
REMARK   63  A    between atoms: _154  and  _155
REMARK   64  A    between atoms: _154  and  _157
REMARK   65  A    between atoms: _157  and  _158
REMARK   66  A    between atoms: _158  and  _159
REMARK   67  A    between atoms: _159  and  _160
REMARK   68  A    between atoms: _169  and  _171
REMARK   69  A    between atoms: _171  and  _172
REMARK   70  A    between atoms: _174  and  _176
REMARK   71  A    between atoms: _176  and  _177
REMARK   72  A    between atoms: _176  and  _179
REMARK   73  A    between atoms: _179  and  _180
REMARK   74  A    between atoms: _180  and  _181
REMARK   75  A    between atoms: _186  and  _188
REMARK   76  A    between atoms: _188  and  _189
REMARK   77  A    between atoms: _188  and  _191
REMARK   78  A    between atoms: _191  and  _192
REMARK   79  A    between atoms: _196  and  _197
REMARK   80  A    between atoms: _202  and  _204
REMARK   81  A    between atoms: _204  and  _205
REMARK   82  A    between atoms: _204  and  _207
REMARK   83  A    between atoms: _207  and  _208
REMARK   84  A    between atoms: _213  and  _215
REMARK   85  A    between atoms: _215  and  _216
REMARK   86  A    between atoms: _215  and  _218
REMARK   87  A    between atoms: _218  and  _219
REMARK   88  A    between atoms: _225  and  _227
REMARK   89  A    between atoms: _227  and  _228
REMARK   90  A    between atoms: _227  and  _230
REMARK   91  A    between atoms: _230  and  _231
REMARK   92  A    between atoms: _234  and  _236
REMARK   93  A    between atoms: _236  and  _237
REMARK   94  A    between atoms: _236  and  _239
REMARK   95  A    between atoms: _239  and  _240
REMARK   96  A    between atoms: _245  and  _246
REMARK   97  A    between atoms: _248  and  _250
REMARK   98  A    between atoms: _250  and  _251
REMARK   99  A    between atoms: _250  and  _253
REMARK  100  A    between atoms: _256  and  _258
REMARK  101  A    between atoms: _258  and  _259
REMARK  102  A    between atoms: _258  and  _261
REMARK  103  A    between atoms: _263  and  _265
REMARK  104  A    between atoms: _265  and  _266
REMARK  105  A    between atoms: _269  and  _271
REMARK  106  A    between atoms: _271  and  _272
REMARK  107  A    between atoms: _271  and  _274
REMARK  108  A    between atoms: _277  and  _279
REMARK  109  A    between atoms: _279  and  _280
REMARK  110  A    between atoms: _279  and  _282
REMARK  111  A    between atoms: _285  and  _287
REMARK  112  A    between atoms: _287  and  _288
REMARK  113  A    between atoms: _287  and  _290
REMARK  114  A    between atoms: _290  and  _291
REMARK  115  A    between atoms: _294  and  _296
REMARK  116  A    between atoms: _296  and  _297
REMARK  117  A    between atoms: _296  and  _299
REMARK  118  A    between atoms: _299  and  _300
REMARK  119  A    between atoms: _303  and  _305
REMARK  120  A    between atoms: _305  and  _306
REMARK  121  A    between atoms: _305  and  _308
REMARK  122  A    between atoms: _311  and  _313
REMARK  123  A    between atoms: _313  and  _314
REMARK  124  A    between atoms: _313  and  _316
REMARK  125  A    between atoms: _319  and  _321
REMARK  126  A    between atoms: _321  and  _322
REMARK  127  A    between atoms: _325  and  _327
REMARK  128  A    between atoms: _327  and  _328
REMARK  129  A    between atoms: _327  and  _330
REMARK  130  A    between atoms: _330  and  _331
REMARK  131  A    between atoms: _335  and  _336
REMARK  132  A    between atoms: _341  and  _343
REMARK  133  A    between atoms: _343  and  _344
REMARK  134  A    between atoms: _343  and  _346
REMARK  135  A    between atoms: _346  and  _347
REMARK  136  A    between atoms: _350  and  _352
REMARK  137  A    between atoms: _352  and  _353
REMARK  138  A    between atoms: _356  and  _358
REMARK  139  A    between atoms: _358  and  _359
REMARK  140  A    between atoms: _358  and  _361
REMARK  141  A    between atoms: _361  and  _362
REMARK  142  A    between atoms: _367  and  _369
REMARK  143  A    between atoms: _369  and  _370
REMARK  144  A    between atoms: _372  and  _374
REMARK  145  A    between atoms: _374  and  _375
REMARK  146  A    between atoms: _374  and  _377
REMARK  147  A    between atoms: _380  and  _382
REMARK  148  A    between atoms: _382  and  _383
REMARK  149  A    between atoms: _382  and  _385
REMARK  150  A    between atoms: _385  and  _386
REMARK  151  A    between atoms: _389  and  _391
REMARK  152  A    between atoms: _391  and  _392
REMARK  153  A    between atoms: _391  and  _394
REMARK  154  A    between atoms: _394  and  _395
REMARK  155  A    between atoms: _398  and  _400
REMARK  156  A    between atoms: _400  and  _401
REMARK  157  A    between atoms: _400  and  _403
REMARK  158  A    between atoms: _403  and  _404
REMARK  159  A    between atoms: _407  and  _409
REMARK  160  A    between atoms: _409  and  _410
REMARK  161  A    between atoms: _409  and  _412
REMARK  162  A    between atoms: _412  and  _413
REMARK  163  A    between atoms: _418  and  _420
REMARK  164  A    between atoms: _420  and  _421
REMARK  165  A    between atoms: _420  and  _423
REMARK  166  A    between atoms: _423  and  _424
REMARK  167  A    between atoms: _424  and  _425
REMARK  168  A    between atoms: _430  and  _432
REMARK  169  A    between atoms: _432  and  _433
REMARK  170  A    between atoms: _432  and  _435
REMARK  171  A    between atoms: _435  and  _436
REMARK  172  A    between atoms: _439  and  _441
REMARK  173  A    between atoms: _441  and  _442
REMARK  174  A    between atoms: _441  and  _444
REMARK  175  A    between atoms: _444  and  _445
REMARK  176  A    between atoms: _445  and  _446
REMARK  177  A    between atoms: _446  and  _447
REMARK  178  A    between atoms: _456  and  _458
REMARK  179  A    between atoms: _458  and  _459
REMARK  180  A    between atoms: _458  and  _461
REMARK  181  A    between atoms: _461  and  _462
REMARK  182  A    between atoms: _462  and  _463
REMARK  183  A    between atoms: _466  and  _468
REMARK  184  A    between atoms: _468  and  _469
REMARK  185  A    between atoms: _468  and  _471
REMARK  186  A    between atoms: _471  and  _472
REMARK  187  A    between atoms: _472  and  _473
REMARK  188  A    between atoms: _473  and  _474
REMARK  189  A    between atoms: _474  and  _475
REMARK  190  A    between atoms: _479  and  _481
REMARK  191  A    between atoms: _481  and  _482
REMARK  192  A    between atoms: _484  and  _486
REMARK  193  A    between atoms: _486  and  _487
REMARK  194  A    between atoms: _490  and  _492
REMARK  195  A    between atoms: _492  and  _493
REMARK  196  A    between atoms: _492  and  _495
REMARK  197  A    between atoms: _495  and  _496
REMARK  198  A    between atoms: _496  and  _497
REMARK  199  A    between atoms: _502  and  _504
REMARK  200  A    between atoms: _504  and  _505
REMARK  201  A    between atoms: _508  and  _510
REMARK  202  A    between atoms: _510  and  _511
REMARK  203  A    between atoms: _510  and  _513
REMARK  204  A    between atoms: _513  and  _514
REMARK  205  A    between atoms: _517  and  _519
REMARK  206  A    between atoms: _519  and  _520
REMARK  207  A    between atoms: _519  and  _522
REMARK  208  A    between atoms: _525  and  _527
REMARK  209  A    between atoms: _527  and  _528
REMARK  210  A    between atoms: _531  and  _533
REMARK  211  A    between atoms: _533  and  _534
REMARK  212  A    between atoms: _537  and  _539
REMARK  213  A    between atoms: _539  and  _540
REMARK  214  A    between atoms: _539  and  _542
REMARK  215  A    between atoms: _542  and  _543
REMARK                            x       y       z     vdW  Elec       q    Type
REMARK                         _______ _______ _______ _____ _____    ______ ____
ROOT
ATOM      1  CB  GLN A   1     -16.100  10.776  -1.491  0.00  0.00    +0.035 C 
ENDROOT
BRANCH   1   2
ATOM      2  CA  GLN A   1     -17.135  11.660  -2.185  0.00  0.00    +0.134 C 
BRANCH   2   3
ATOM      3  N   GLN A   1     -16.525  12.886  -2.696  0.00  0.00    -0.239 NA
ATOM      4  H   GLN A   1     -15.517  13.070  -2.519  0.00  0.00    +0.142 HD
ENDBRANCH   2   3
BRANCH   2   5
ATOM      5  C   GLN A   1     -18.227  12.018  -1.198  0.00  0.00    +0.224 C 
ATOM      6  O   GLN A   1     -19.310  11.445  -1.232  0.00  0.00    -0.287 OA
ENDBRANCH   2   5
ENDBRANCH   1   2
BRANCH   1   7
ATOM      7  CG  GLN A   1     -15.214   9.976  -2.434  0.00  0.00    +0.087 C 
BRANCH   7   8
ATOM      8  CD  GLN A   1     -14.019   9.394  -1.708  0.00  0.00    +0.219 C 
ATOM      9  OE1 GLN A   1     -13.654   9.866  -0.629  0.00  0.00    -0.275 OA
ATOM     10  NE2 GLN A   1     -13.387   8.399  -2.304  0.00  0.00    -0.329 N 
ATOM     11 HE21 GLN A   1     -12.543   7.980  -1.863  0.00  0.00    +0.145 HD
ATOM     12 HE22 GLN A   1     -13.733   8.034  -3.214  0.00  0.00    +0.145 HD
ENDBRANCH   7   8
ENDBRANCH   1   7
TORSDOF 5
REMARK  Name = ../refined-set-2016/2c92/2c92_pocket.pdb
REMARK  215 active torsions:
REMARK  status: ('A' for Active; 'I' for Inactive)
REMARK    1  A    between atoms: _1  and  _3
REMARK    2  A    between atoms: _3  and  _4
REMARK    3  A    between atoms: _7  and  _9
REMARK    4  A    between atoms: _9  and  _10
REMARK    5  A    between atoms: _9  and  _12
REMARK    6  A    between atoms: _12  and  _13
REMARK    7  A    between atoms: _15  and  _17
REMARK    8  A    between atoms: _17  and  _18
REMARK    9  A    between atoms: _17  and  _20
REMARK   10  A    between atoms: _20  and  _21
REMARK   11  A    between atoms: _23  and  _25
REMARK   12  A    between atoms: _25  and  _26
REMARK   13  A    between atoms: _25  and  _28
REMARK   14  A    between atoms: _28  and  _29
REMARK   15  A    between atoms: _39  and  _41
REMARK   16  A    between atoms: _41  and  _42
REMARK   17  A    between atoms: _41  and  _44
REMARK   18  A    between atoms: _44  and  _45
REMARK   19  A    between atoms: _50  and  _52
REMARK   20  A    between atoms: _52  and  _53
REMARK   21  A    between atoms: _52  and  _55
REMARK   22  A    between atoms: _57  and  _59
REMARK   23  A    between atoms: _59  and  _60
REMARK   24  A    between atoms: _59  and  _62
REMARK   25  A    between atoms: _65  and  _67
REMARK   26  A    between atoms: _67  and  _68
REMARK   27  A    between atoms: _67  and  _70
REMARK   28  A    between atoms: _70  and  _71
REMARK   29  A    between atoms: _74  and  _76
REMARK   30  A    between atoms: _76  and  _77
REMARK   31  A    between atoms: _79  and  _81
REMARK   32  A    between atoms: _81  and  _82
REMARK   33  A    between atoms: _85  and  _87
REMARK   34  A    between atoms: _87  and  _88
REMARK   35  A    between atoms: _87  and  _90
REMARK   36  A    between atoms: _90  and  _91
REMARK   37  A    between atoms: _94  and  _96
REMARK   38  A    between atoms: _96  and  _97
REMARK   39  A    between atoms: _96  and  _99
REMARK   40  A    between atoms: _99  and  _100
REMARK   41  A    between atoms: _100  and  _101
REMARK   42  A    between atoms: _104  and  _106
REMARK   43  A    between atoms: _106  and  _107
REMARK   44  A    between atoms: _106  and  _109
REMARK   45  A    between atoms: _109  and  _110
REMARK   46  A    between atoms: _113  and  _115
REMARK   47  A    between atoms: _115  and  _116
REMARK   48  A    between atoms: _115  and  _118
REMARK   49  A    between atoms: _118  and  _119
REMARK   50  A    between atoms: _122  and  _124
REMARK   51  A    between atoms: _124  and  _125
REMARK   52  A    between atoms: _127  and  _129
REMARK   53  A    between atoms: _129  and  _130
REMARK   54  A    between atoms: _129  and  _132
REMARK   55  A    between atoms: _135  and  _137
REMARK   56  A    between atoms: _137  and  _138
REMARK   57  A    between atoms: _137  and  _140
REMARK   58  A    between atoms: _143  and  _145
REMARK   59  A    between atoms: _145  and  _146
REMARK   60  A    between atoms: _145  and  _148
REMARK   61  A    between atoms: _148  and  _149
REMARK   62  A    between atoms: _152  and  _154
REMARK   63  A    between atoms: _154  and  _155
REMARK   64  A    between atoms: _154  and  _157
REMARK   65  A    between atoms: _157  and  _158
REMARK   66  A    between atoms: _158  and  _159
REMARK   67  A    between atoms: _159  and  _160
REMARK   68  A    between atoms: _169  and  _171
REMARK   69  A    between atoms: _171  and  _172
REMARK   70  A    between atoms: _174  and  _176
REMARK   71  A    between atoms: _176  and  _177
REMARK   72  A    between atoms: _176  and  _179
REMARK   73  A    between atoms: _179  and  _180
REMARK   74  A    between atoms: _180  and  _181
REMARK   75  A    between atoms: _186  and  _188
REMARK   76  A    between atoms: _188  and  _189
REMARK   77  A    between atoms: _188  and  _191
REMARK   78  A    between atoms: _191  and  _192
REMARK   79  A    between atoms: _196  and  _197
REMARK   80  A    between atoms: _202  and  _204
REMARK   81  A    between atoms: _204  and  _205
REMARK   82  A    between atoms: _204  and  _207
REMARK   83  A    between atoms: _207  and  _208
REMARK   84  A    between atoms: _213  and  _215
REMARK   85  A    between atoms: _215  and  _216
REMARK   86  A    between atoms: _215  and  _218
REMARK   87  A    between atoms: _218  and  _219
REMARK   88  A    between atoms: _225  and  _227
REMARK   89  A    between atoms: _227  and  _228
REMARK   90  A    between atoms: _227  and  _230
REMARK   91  A    between atoms: _230  and  _231
REMARK   92  A    between atoms: _234  and  _236
REMARK   93  A    between atoms: _236  and  _237
REMARK   94  A    between atoms: _236  and  _239
REMARK   95  A    between atoms: _239  and  _240
REMARK   96  A    between atoms: _245  and  _246
REMARK   97  A    between atoms: _248  and  _250
REMARK   98  A    between atoms: _250  and  _251
REMARK   99  A    between atoms: _250  and  _253
REMARK  100  A    between atoms: _256  and  _258
REMARK  101  A    between atoms: _258  and  _259
REMARK  102  A    between atoms: _258  and  _261
REMARK  103  A    between atoms: _263  and  _265
REMARK  104  A    between atoms: _265  and  _266
REMARK  105  A    between atoms: _269  and  _271
REMARK  106  A    between atoms: _271  and  _272
REMARK  107  A    between atoms: _271  and  _274
REMARK  108  A    between atoms: _277  and  _279
REMARK  109  A    between atoms: _279  and  _280
REMARK  110  A    between atoms: _279  and  _282
REMARK  111  A    between atoms: _285  and  _287
REMARK  112  A    between atoms: _287  and  _288
REMARK  113  A    between atoms: _287  and  _290
REMARK  114  A    between atoms: _290  and  _291
REMARK  115  A    between atoms: _294  and  _296
REMARK  116  A    between atoms: _296  and  _297
REMARK  117  A    between atoms: _296  and  _299
REMARK  118  A    between atoms: _299  and  _300
REMARK  119  A    between atoms: _303  and  _305
REMARK  120  A    between atoms: _305  and  _306
REMARK  121  A    between atoms: _305  and  _308
REMARK  122  A    between atoms: _311  and  _313
REMARK  123  A    between atoms: _313  and  _314
REMARK  124  A    between atoms: _313  and  _316
REMARK  125  A    between atoms: _319  and  _321
REMARK  126  A    between atoms: _321  and  _322
REMARK  127  A    between atoms: _325  and  _327
REMARK  128  A    between atoms: _327  and  _328
REMARK  129  A    between atoms: _327  and  _330
REMARK  130  A    between atoms: _330  and  _331
REMARK  131  A    between atoms: _335  and  _336
REMARK  132  A    between atoms: _341  and  _343
REMARK  133  A    between atoms: _343  and  _344
REMARK  134  A    between atoms: _343  and  _346
REMARK  135  A    between atoms: _346  and  _347
REMARK  136  A    between atoms: _350  and  _352
REMARK  137  A    between atoms: _352  and  _353
REMARK  138  A    between atoms: _356  and  _358
REMARK  139  A    between atoms: _358  and  _359
REMARK  140  A    between atoms: _358  and  _361
REMARK  141  A    between atoms: _361  and  _362
REMARK  142  A    between atoms: _367  and  _369
REMARK  143  A    between atoms: _369  and  _370
REMARK  144  A    between atoms: _372  and  _374
REMARK  145  A    between atoms: _374  and  _375
REMARK  146  A    between atoms: _374  and  _377
REMARK  147  A    between atoms: _380  and  _382
REMARK  148  A    between atoms: _382  and  _383
REMARK  149  A    between atoms: _382  and  _385
REMARK  150  A    between atoms: _385  and  _386
REMARK  151  A    between atoms: _389  and  _391
REMARK  152  A    between atoms: _391  and  _392
REMARK  153  A    between atoms: _391  and  _394
REMARK  154  A    between atoms: _394  and  _395
REMARK  155  A    between atoms: _398  and  _400
REMARK  156  A    between atoms: _400  and  _401
REMARK  157  A    between atoms: _400  and  _403
REMARK  158  A    between atoms: _403  and  _404
REMARK  159  A    between atoms: _407  and  _409
REMARK  160  A    between atoms: _409  and  _410
REMARK  161  A    between atoms: _409  and  _412
REMARK  162  A    between atoms: _412  and  _413
REMARK  163  A    between atoms: _418  and  _420
REMARK  164  A    between atoms: _420  and  _421
REMARK  165  A    between atoms: _420  and  _423
REMARK  166  A    between atoms: _423  and  _424
REMARK  167  A    between atoms: _424  and  _425
REMARK  168  A    between atoms: _430  and  _432
REMARK  169  A    between atoms: _432  and  _433
REMARK  170  A    between atoms: _432  and  _435
REMARK  171  A    between atoms: _435  and  _436
REMARK  172  A    between atoms: _439  and  _441
REMARK  173  A    between atoms: _441  and  _442
REMARK  174  A    between atoms: _441  and  _444
REMARK  175  A    between atoms: _444  and  _445
REMARK  176  A    between atoms: _445  and  _446
REMARK  177  A    between atoms: _446  and  _447
REMARK  178  A    between atoms: _456  and  _458
REMARK  179  A    between atoms: _458  and  _459
REMARK  180  A    between atoms: _458  and  _461
REMARK  181  A    between atoms: _461  and  _462
REMARK  182  A    between atoms: _462  and  _463
REMARK  183  A    between atoms: _466  and  _468
REMARK  184  A    between atoms: _468  and  _469
REMARK  185  A    between atoms: _468  and  _471
REMARK  186  A    between atoms: _471  and  _472
REMARK  187  A    between atoms: _472  and  _473
REMARK  188  A    between atoms: _473  and  _474
REMARK  189  A    between atoms: _474  and  _475
REMARK  190  A    between atoms: _479  and  _481
REMARK  191  A    between atoms: _481  and  _482
REMARK  192  A    between atoms: _484  and  _486
REMARK  193  A    between atoms: _486  and  _487
REMARK  194  A    between atoms: _490  and  _492
REMARK  195  A    between atoms: _492  and  _493
REMARK  196  A    between atoms: _492  and  _495
REMARK  197  A    between atoms: _495  and  _496
REMARK  198  A    between atoms: _496  and  _497
REMARK  199  A    between atoms: _502  and  _504
REMARK  200  A    between atoms: _504  and  _505
REMARK  201  A    between atoms: _508  and  _510
REMARK  202  A    between atoms: _510  and  _511
REMARK  203  A    between atoms: _510  and  _513
REMARK  204  A    between atoms: _513  and  _514
REMARK  205  A    between atoms: _517  and  _519
REMARK  206  A    between atoms: _519  and  _520
REMARK  207  A    between atoms: _519  and  _522
REMARK  208  A    between atoms: _525  and  _527
REMARK  209  A    between atoms: _527  and  _528
REMARK  210  A    between atoms: _531  and  _533
REMARK  211  A    between atoms: _533  and  _534
REMARK  212  A    between atoms: _537  and  _539
REMARK  213  A    between atoms: _539  and  _540
REMARK  214  A    between atoms: _539  and  _542
REMARK  215  A    between atoms: _542  and  _543
REMARK                            x       y       z     vdW  Elec       q    Type
REMARK                         _______ _______ _______ _____ _____    ______ ____
ROOT
ATOM      1  CA  ARG A   2     -23.335  10.684  -0.444  0.00  0.00    +0.137 C 
ENDROOT
BRANCH   1   3
ATOM      2  C   ASP A   1     -22.813  11.328  -2.762  0.00  0.00    +0.239 C 
ATOM      3  N   ARG A   2     -22.664  11.514  -1.446  0.00  0.00    -0.298 N 
ATOM      4  H   ARG A   2     -22.044  12.283  -1.120  0.00  0.00    +0.150 HD
ATOM      5  O   ASP A   1     -23.599  10.525  -3.255  0.00  0.00    -0.274 OA
BRANCH   2   6
ATOM      6  CA  ASP A   1     -21.966  12.229  -3.665  0.00  0.00    +0.156 C 
BRANCH   6   7
ATOM      7  N   ASP A   1     -21.307  13.301  -2.946  0.00  0.00    -0.238 NA
ATOM      8  H   ASP A   1     -20.274  13.262  -2.831  0.00  0.00    +0.142 HD
ENDBRANCH   6   7
BRANCH   6   9
ATOM      9  CB  ASP A   1     -20.908  11.418  -4.403  0.00  0.00    +0.140 C 
BRANCH   9  10
ATOM     10  CG  ASP A   1     -21.462  10.669  -5.584  0.00  0.00    +0.367 C 
ATOM     11  OD2 ASP A   1     -20.864   9.639  -5.949  0.00  0.00    -0.246 OA
ATOM     12  OD1 ASP A   1     -22.482  11.103  -6.163  0.00  0.00    -0.246 OA
ENDBRANCH   9  10
ENDBRANCH   6   9
ENDBRANCH   2   6
ENDBRANCH   1   3
BRANCH   1  13
ATOM     13  C   ARG A   2     -24.287  11.473   0.460  0.00  0.00    +0.227 C 
ATOM     14  O   ARG A   2     -24.816  10.921   1.441  0.00  0.00    -0.286 OA
ENDBRANCH   1  13
BRANCH   1  15
ATOM     15  CB  ARG A   2     -22.275   9.991   0.400  0.00  0.00    +0.031 C 
BRANCH  15  16
ATOM     16  CG  ARG A   2     -21.579   8.896  -0.362  0.00  0.00    +0.045 C 
BRANCH  16  17
ATOM     17  CD  ARG A   2     -20.200   8.600   0.202  0.00  0.00    +0.174 C 
BRANCH  17  18
ATOM     18  NE  ARG A   2     -19.584   7.499  -0.537  0.00  0.00    -0.265 N 
ATOM     19  HE  ARG A   2     -19.620   6.548  -0.119  0.00  0.00    +0.259 HD
ATOM     20  CZ  ARG A   2     -18.977   7.645  -1.721  0.00  0.00    +0.342 C 
ATOM     21  NH2 ARG A   2     -18.893   8.855  -2.286  0.00  0.00    -0.292 N 
ATOM     22 HH21 ARG A   2     -19.299   9.683  -1.805  0.00  0.00    +0.255 HD
ATOM     23 HH22 ARG A   2     -18.421   8.968  -3.206  0.00  0.00    +0.255 HD
ATOM     24  NH1 ARG A   2     -18.452   6.597  -2.339  0.00  0.00    -0.292 N 
ATOM     25 HH11 ARG A   2     -18.510   5.654  -1.904  0.00  0.00    +0.255 HD
ATOM     26 HH12 ARG A   2     -17.982   6.717  -3.259  0.00  0.00    +0.255 HD
ENDBRANCH  17  18
ENDBRANCH  16  17
ENDBRANCH  15  16
ENDBRANCH   1  15
TORSDOF 10
REMARK  Name = ../refined-set-2016/2c92/2c92_pocket.pdb
REMARK  215 active torsions:
REMARK  status: ('A' for Active; 'I' for Inactive)
REMARK    1  A    between atoms: _1  and  _3
REMARK    2  A    between atoms: _3  and  _4
REMARK    3  A    between atoms: _7  and  _9
REMARK    4  A    between atoms: _9  and  _10
REMARK    5  A    between atoms: _9  and  _12
REMARK    6  A    between atoms: _12  and  _13
REMARK    7  A    between atoms: _15  and  _17
REMARK    8  A    between atoms: _17  and  _18
REMARK    9  A    between atoms: _17  and  _20
REMARK   10  A    between atoms: _20  and  _21
REMARK   11  A    between atoms: _23  and  _25
REMARK   12  A    between atoms: _25  and  _26
REMARK   13  A    between atoms: _25  and  _28
REMARK   14  A    between atoms: _28  and  _29
REMARK   15  A    between atoms: _39  and  _41
REMARK   16  A    between atoms: _41  and  _42
REMARK   17  A    between atoms: _41  and  _44
REMARK   18  A    between atoms: _44  and  _45
REMARK   19  A    between atoms: _50  and  _52
REMARK   20  A    between atoms: _52  and  _53
REMARK   21  A    between atoms: _52  and  _55
REMARK   22  A    between atoms: _57  and  _59
REMARK   23  A    between atoms: _59  and  _60
REMARK   24  A    between atoms: _59  and  _62
REMARK   25  A    between atoms: _65  and  _67
REMARK   26  A    between atoms: _67  and  _68
REMARK   27  A    between atoms: _67  and  _70
REMARK   28  A    between atoms: _70  and  _71
REMARK   29  A    between atoms: _74  and  _76
REMARK   30  A    between atoms: _76  and  _77
REMARK   31  A    between atoms: _79  and  _81
REMARK   32  A    between atoms: _81  and  _82
REMARK   33  A    between atoms: _85  and  _87
REMARK   34  A    between atoms: _87  and  _88
REMARK   35  A    between atoms: _87  and  _90
REMARK   36  A    between atoms: _90  and  _91
REMARK   37  A    between atoms: _94  and  _96
REMARK   38  A    between atoms: _96  and  _97
REMARK   39  A    between atoms: _96  and  _99
REMARK   40  A    between atoms: _99  and  _100
REMARK   41  A    between atoms: _100  and  _101
REMARK   42  A    between atoms: _104  and  _106
REMARK   43  A    between atoms: _106  and  _107
REMARK   44  A    between atoms: _106  and  _109
REMARK   45  A    between atoms: _109  and  _110
REMARK   46  A    between atoms: _113  and  _115
REMARK   47  A    between atoms: _115  and  _116
REMARK   48  A    between atoms: _115  and  _118
REMARK   49  A    between atoms: _118  and  _119
REMARK   50  A    between atoms: _122  and  _124
REMARK   51  A    between atoms: _124  and  _125
REMARK   52  A    between atoms: _127  and  _129
REMARK   53  A    between atoms: _129  and  _130
REMARK   54  A    between atoms: _129  and  _132
REMARK   55  A    between atoms: _135  and  _137
REMARK   56  A    between atoms: _137  and  _138
REMARK   57  A    between atoms: _137  and  _140
REMARK   58  A    between atoms: _143  and  _145
REMARK   59  A    between atoms: _145  and  _146
REMARK   60  A    between atoms: _145  and  _148
REMARK   61  A    between atoms: _148  and  _149
REMARK   62  A    between atoms: _152  and  _154
REMARK   63  A    between atoms: _154  and  _155
REMARK   64  A    between atoms: _154  and  _157
REMARK   65  A    between atoms: _157  and  _158
REMARK   66  A    between atoms: _158  and  _159
REMARK   67  A    between atoms: _159  and  _160
REMARK   68  A    between atoms: _169  and  _171
REMARK   69  A    between atoms: _171  and  _172
REMARK   70  A    between atoms: _174  and  _176
REMARK   71  A    between atoms: _176  and  _177
REMARK   72  A    between atoms: _176  and  _179
REMARK   73  A    between atoms: _179  and  _180
REMARK   74  A    between atoms: _180  and  _181
REMARK   75  A    between atoms: _186  and  _188
REMARK   76  A    between atoms: _188  and  _189
REMARK   77  A    between atoms: _188  and  _191
REMARK   78  A    between atoms: _191  and  _192
REMARK   79  A    between atoms: _196  and  _197
REMARK   80  A    between atoms: _202  and  _204
REMARK   81  A    between atoms: _204  and  _205
REMARK   82  A    between atoms: _204  and  _207
REMARK   83  A    between atoms: _207  and  _208
REMARK   84  A    between atoms: _213  and  _215
REMARK   85  A    between atoms: _215  and  _216
REMARK   86  A    between atoms: _215  and  _218
REMARK   87  A    between atoms: _218  and  _219
REMARK   88  A    between atoms: _225  and  _227
REMARK   89  A    between atoms: _227  and  _228
REMARK   90  A    between atoms: _227  and  _230
REMARK   91  A    between atoms: _230  and  _231
REMARK   92  A    between atoms: _234  and  _236
REMARK   93  A    between atoms: _236  and  _237
REMARK   94  A    between atoms: _236  and  _239
REMARK   95  A    between atoms: _239  and  _240
REMARK   96  A    between atoms: _245  and  _246
REMARK   97  A    between atoms: _248  and  _250
REMARK   98  A    between atoms: _250  and  _251
REMARK   99  A    between atoms: _250  and  _253
REMARK  100  A    between atoms: _256  and  _258
REMARK  101  A    between atoms: _258  and  _259
REMARK  102  A    between atoms: _258  and  _261
REMARK  103  A    between atoms: _263  and  _265
REMARK  104  A    between atoms: _265  and  _266
REMARK  105  A    between atoms: _269  and  _271
REMARK  106  A    between atoms: _271  and  _272
REMARK  107  A    between atoms: _271  and  _274
REMARK  108  A    between atoms: _277  and  _279
REMARK  109  A    between atoms: _279  and  _280
REMARK  110  A    between atoms: _279  and  _282
REMARK  111  A    between atoms: _285  and  _287
REMARK  112  A    between atoms: _287  and  _288
REMARK  113  A    between atoms: _287  and  _290
REMARK  114  A    between atoms: _290  and  _291
REMARK  115  A    between atoms: _294  and  _296
REMARK  116  A    between atoms: _296  and  _297
REMARK  117  A    between atoms: _296  and  _299
REMARK  118  A    between atoms: _299  and  _300
REMARK  119  A    between atoms: _303  and  _305
REMARK  120  A    between atoms: _305  and  _306
REMARK  121  A    between atoms: _305  and  _308
REMARK  122  A    between atoms: _311  and  _313
REMARK  123  A    between atoms: _313  and  _314
REMARK  124  A    between atoms: _313  and  _316
REMARK  125  A    between atoms: _319  and  _321
REMARK  126  A    between atoms: _321  and  _322
REMARK  127  A    between atoms: _325  and  _327
REMARK  128  A    between atoms: _327  and  _328
REMARK  129  A    between atoms: _327  and  _330
REMARK  130  A    between atoms: _330  and  _331
REMARK  131  A    between atoms: _335  and  _336
REMARK  132  A    between atoms: _341  and  _343
REMARK  133  A    between atoms: _343  and  _344
REMARK  134  A    between atoms: _343  and  _346
REMARK  135  A    between atoms: _346  and  _347
REMARK  136  A    between atoms: _350  and  _352
REMARK  137  A    between atoms: _352  and  _353
REMARK  138  A    between atoms: _356  and  _358
REMARK  139  A    between atoms: _358  and  _359
REMARK  140  A    between atoms: _358  and  _361
REMARK  141  A    between atoms: _361  and  _362
REMARK  142  A    between atoms: _367  and  _369
REMARK  143  A    between atoms: _369  and  _370
REMARK  144  A    between atoms: _372  and  _374
REMARK  145  A    between atoms: _374  and  _375
REMARK  146  A    between atoms: _374  and  _377
REMARK  147  A    between atoms: _380  and  _382
REMARK  148  A    between atoms: _382  and  _383
REMARK  149  A    between atoms: _382  and  _385
REMARK  150  A    between atoms: _385  and  _386
REMARK  151  A    between atoms: _389  and  _391
REMARK  152  A    between atoms: _391  and  _392
REMARK  153  A    between atoms: _391  and  _394
REMARK  154  A    between atoms: _394  and  _395
REMARK  155  A    between atoms: _398  and  _400
REMARK  156  A    between atoms: _400  and  _401
REMARK  157  A    between atoms: _400  and  _403
REMARK  158  A    between atoms: _403  and  _404
REMARK  159  A    between atoms: _407  and  _409
REMARK  160  A    between atoms: _409  and  _410
REMARK  161  A    between atoms: _409  and  _412
REMARK  162  A    between atoms: _412  and  _413
REMARK  163  A    between atoms: _418  and  _420
REMARK  164  A    between atoms: _420  and  _421
REMARK  165  A    between atoms: _420  and  _423
REMARK  166  A    between atoms: _423  and  _424
REMARK  167  A    between atoms: _424  and  _425
REMARK  168  A    between atoms: _430  and  _432
REMARK  169  A    between atoms: _432  and  _433
REMARK  170  A    between atoms: _432  and  _435
REMARK  171  A    between atoms: _435  and  _436
REMARK  172  A    between atoms: _439  and  _441
REMARK  173  A    between atoms: _441  and  _442
REMARK  174  A    between atoms: _441  and  _444
REMARK  175  A    between atoms: _444  and  _445
REMARK  176  A    between atoms: _445  and  _446
REMARK  177  A    between atoms: _446  and  _447
REMARK  178  A    between atoms: _456  and  _458
REMARK  179  A    between atoms: _458  and  _459
REMARK  180  A    between atoms: _458  and  _461
REMARK  181  A    between atoms: _461  and  _462
REMARK  182  A    between atoms: _462  and  _463
REMARK  183  A    between atoms: _466  and  _468
REMARK  184  A    between atoms: _468  and  _469
REMARK  185  A    between atoms: _468  and  _471
REMARK  186  A    between atoms: _471  and  _472
REMARK  187  A    between atoms: _472  and  _473
REMARK  188  A    between atoms: _473  and  _474
REMARK  189  A    between atoms: _474  and  _475
REMARK  190  A    between atoms: _479  and  _481
REMARK  191  A    between atoms: _481  and  _482
REMARK  192  A    between atoms: _484  and  _486
REMARK  193  A    between atoms: _486  and  _487
REMARK  194  A    between atoms: _490  and  _492
REMARK  195  A    between atoms: _492  and  _493
REMARK  196  A    between atoms: _492  and  _495
REMARK  197  A    between atoms: _495  and  _496
REMARK  198  A    between atoms: _496  and  _497
REMARK  199  A    between atoms: _502  and  _504
REMARK  200  A    between atoms: _504  and  _505
REMARK  201  A    between atoms: _508  and  _510
REMARK  202  A    between atoms: _510  and  _511
REMARK  203  A    between atoms: _510  and  _513
REMARK  204  A    between atoms: _513  and  _514
REMARK  205  A    between atoms: _517  and  _519
REMARK  206  A    between atoms: _519  and  _520
REMARK  207  A    between atoms: _519  and  _522
REMARK  208  A    between atoms: _525  and  _527
REMARK  209  A    between atoms: _527  and  _528
REMARK  210  A    between atoms: _531  and  _533
REMARK  211  A    between atoms: _533  and  _534
REMARK  212  A    between atoms: _537  and  _539
REMARK  213  A    between atoms: _539  and  _540
REMARK  214  A    between atoms: _539  and  _542
REMARK  215  A    between atoms: _542  and  _543
REMARK                            x       y       z     vdW  Elec       q    Type
REMARK                         _______ _______ _______ _____ _____    ______ ____
ROOT
ATOM      1  CA  GLU A   1     -27.039   8.436  -2.314  0.00  0.00    +0.134 C 
ENDROOT
BRANCH   1   2
ATOM      2  N   GLU A   1     -26.310   8.912  -3.479  0.00  0.00    -0.239 NA
ATOM      3  H   GLU A   1     -25.656   9.715  -3.384  0.00  0.00    +0.142 HD
ENDBRANCH   1   2
BRANCH   1   4
ATOM      4  C   GLU A   1     -27.200   9.529  -1.274  0.00  0.00    +0.224 C 
ATOM      5  O   GLU A   1     -26.559  10.573  -1.368  0.00  0.00    -0.287 OA
ENDBRANCH   1   4
BRANCH   1   6
ATOM      6  CB  GLU A   1     -26.350   7.202  -1.715  0.00  0.00    +0.037 C 
BRANCH   6   7
ATOM      7  CG  GLU A   1     -24.994   7.440  -1.099  0.00  0.00    +0.116 C 
BRANCH   7   8
ATOM      8  CD  GLU A   1     -24.370   6.151  -0.537  0.00  0.00    +0.365 C 
ATOM      9  OE2 GLU A   1     -25.087   5.342   0.097  0.00  0.00    -0.246 OA
ATOM     10  OE1 GLU A   1     -23.153   5.945  -0.731  0.00  0.00    -0.246 OA
ENDBRANCH   7   8
ENDBRANCH   6   7
ENDBRANCH   1   6
TORSDOF 5
REMARK  Name = ../refined-set-2016/2c92/2c92_pocket.pdb
REMARK  215 active torsions:
REMARK  status: ('A' for Active; 'I' for Inactive)
REMARK    1  A    between atoms: _1  and  _3
REMARK    2  A    between atoms: _3  and  _4
REMARK    3  A    between atoms: _7  and  _9
REMARK    4  A    between atoms: _9  and  _10
REMARK    5  A    between atoms: _9  and  _12
REMARK    6  A    between atoms: _12  and  _13
REMARK    7  A    between atoms: _15  and  _17
REMARK    8  A    between atoms: _17  and  _18
REMARK    9  A    between atoms: _17  and  _20
REMARK   10  A    between atoms: _20  and  _21
REMARK   11  A    between atoms: _23  and  _25
REMARK   12  A    between atoms: _25  and  _26
REMARK   13  A    between atoms: _25  and  _28
REMARK   14  A    between atoms: _28  and  _29
REMARK   15  A    between atoms: _39  and  _41
REMARK   16  A    between atoms: _41  and  _42
REMARK   17  A    between atoms: _41  and  _44
REMARK   18  A    between atoms: _44  and  _45
REMARK   19  A    between atoms: _50  and  _52
REMARK   20  A    between atoms: _52  and  _53
REMARK   21  A    between atoms: _52  and  _55
REMARK   22  A    between atoms: _57  and  _59
REMARK   23  A    between atoms: _59  and  _60
REMARK   24  A    between atoms: _59  and  _62
REMARK   25  A    between atoms: _65  and  _67
REMARK   26  A    between atoms: _67  and  _68
REMARK   27  A    between atoms: _67  and  _70
REMARK   28  A    between atoms: _70  and  _71
REMARK   29  A    between atoms: _74  and  _76
REMARK   30  A    between atoms: _76  and  _77
REMARK   31  A    between atoms: _79  and  _81
REMARK   32  A    between atoms: _81  and  _82
REMARK   33  A    between atoms: _85  and  _87
REMARK   34  A    between atoms: _87  and  _88
REMARK   35  A    between atoms: _87  and  _90
REMARK   36  A    between atoms: _90  and  _91
REMARK   37  A    between atoms: _94  and  _96
REMARK   38  A    between atoms: _96  and  _97
REMARK   39  A    between atoms: _96  and  _99
REMARK   40  A    between atoms: _99  and  _100
REMARK   41  A    between atoms: _100  and  _101
REMARK   42  A    between atoms: _104  and  _106
REMARK   43  A    between atoms: _106  and  _107
REMARK   44  A    between atoms: _106  and  _109
REMARK   45  A    between atoms: _109  and  _110
REMARK   46  A    between atoms: _113  and  _115
REMARK   47  A    between atoms: _115  and  _116
REMARK   48  A    between atoms: _115  and  _118
REMARK   49  A    between atoms: _118  and  _119
REMARK   50  A    between atoms: _122  and  _124
REMARK   51  A    between atoms: _124  and  _125
REMARK   52  A    between atoms: _127  and  _129
REMARK   53  A    between atoms: _129  and  _130
REMARK   54  A    between atoms: _129  and  _132
REMARK   55  A    between atoms: _135  and  _137
REMARK   56  A    between atoms: _137  and  _138
REMARK   57  A    between atoms: _137  and  _140
REMARK   58  A    between atoms: _143  and  _145
REMARK   59  A    between atoms: _145  and  _146
REMARK   60  A    between atoms: _145  and  _148
REMARK   61  A    between atoms: _148  and  _149
REMARK   62  A    between atoms: _152  and  _154
REMARK   63  A    between atoms: _154  and  _155
REMARK   64  A    between atoms: _154  and  _157
REMARK   65  A    between atoms: _157  and  _158
REMARK   66  A    between atoms: _158  and  _159
REMARK   67  A    between atoms: _159  and  _160
REMARK   68  A    between atoms: _169  and  _171
REMARK   69  A    between atoms: _171  and  _172
REMARK   70  A    between atoms: _174  and  _176
REMARK   71  A    between atoms: _176  and  _177
REMARK   72  A    between atoms: _176  and  _179
REMARK   73  A    between atoms: _179  and  _180
REMARK   74  A    between atoms: _180  and  _181
REMARK   75  A    between atoms: _186  and  _188
REMARK   76  A    between atoms: _188  and  _189
REMARK   77  A    between atoms: _188  and  _191
REMARK   78  A    between atoms: _191  and  _192
REMARK   79  A    between atoms: _196  and  _197
REMARK   80  A    between atoms: _202  and  _204
REMARK   81  A    between atoms: _204  and  _205
REMARK   82  A    between atoms: _204  and  _207
REMARK   83  A    between atoms: _207  and  _208
REMARK   84  A    between atoms: _213  and  _215
REMARK   85  A    between atoms: _215  and  _216
REMARK   86  A    between atoms: _215  and  _218
REMARK   87  A    between atoms: _218  and  _219
REMARK   88  A    between atoms: _225  and  _227
REMARK   89  A    between atoms: _227  and  _228
REMARK   90  A    between atoms: _227  and  _230
REMARK   91  A    between atoms: _230  and  _231
REMARK   92  A    between atoms: _234  and  _236
REMARK   93  A    between atoms: _236  and  _237
REMARK   94  A    between atoms: _236  and  _239
REMARK   95  A    between atoms: _239  and  _240
REMARK   96  A    between atoms: _245  and  _246
REMARK   97  A    between atoms: _248  and  _250
REMARK   98  A    between atoms: _250  and  _251
REMARK   99  A    between atoms: _250  and  _253
REMARK  100  A    between atoms: _256  and  _258
REMARK  101  A    between atoms: _258  and  _259
REMARK  102  A    between atoms: _258  and  _261
REMARK  103  A    between atoms: _263  and  _265
REMARK  104  A    between atoms: _265  and  _266
REMARK  105  A    between atoms: _269  and  _271
REMARK  106  A    between atoms: _271  and  _272
REMARK  107  A    between atoms: _271  and  _274
REMARK  108  A    between atoms: _277  and  _279
REMARK  109  A    between atoms: _279  and  _280
REMARK  110  A    between atoms: _279  and  _282
REMARK  111  A    between atoms: _285  and  _287
REMARK  112  A    between atoms: _287  and  _288
REMARK  113  A    between atoms: _287  and  _290
REMARK  114  A    between atoms: _290  and  _291
REMARK  115  A    between atoms: _294  and  _296
REMARK  116  A    between atoms: _296  and  _297
REMARK  117  A    between atoms: _296  and  _299
REMARK  118  A    between atoms: _299  and  _300
REMARK  119  A    between atoms: _303  and  _305
REMARK  120  A    between atoms: _305  and  _306
REMARK  121  A    between atoms: _305  and  _308
REMARK  122  A    between atoms: _311  and  _313
REMARK  123  A    between atoms: _313  and  _314
REMARK  124  A    between atoms: _313  and  _316
REMARK  125  A    between atoms: _319  and  _321
REMARK  126  A    between atoms: _321  and  _322
REMARK  127  A    between atoms: _325  and  _327
REMARK  128  A    between atoms: _327  and  _328
REMARK  129  A    between atoms: _327  and  _330
REMARK  130  A    between atoms: _330  and  _331
REMARK  131  A    between atoms: _335  and  _336
REMARK  132  A    between atoms: _341  and  _343
REMARK  133  A    between atoms: _343  and  _344
REMARK  134  A    between atoms: _343  and  _346
REMARK  135  A    between atoms: _346  and  _347
REMARK  136  A    between atoms: _350  and  _352
REMARK  137  A    between atoms: _352  and  _353
REMARK  138  A    between atoms: _356  and  _358
REMARK  139  A    between atoms: _358  and  _359
REMARK  140  A    between atoms: _358  and  _361
REMARK  141  A    between atoms: _361  and  _362
REMARK  142  A    between atoms: _367  and  _369
REMARK  143  A    between atoms: _369  and  _370
REMARK  144  A    between atoms: _372  and  _374
REMARK  145  A    between atoms: _374  and  _375
REMARK  146  A    between atoms: _374  and  _377
REMARK  147  A    between atoms: _380  and  _382
REMARK  148  A    between atoms: _382  and  _383
REMARK  149  A    between atoms: _382  and  _385
REMARK  150  A    between atoms: _385  and  _386
REMARK  151  A    between atoms: _389  and  _391
REMARK  152  A    between atoms: _391  and  _392
REMARK  153  A    between atoms: _391  and  _394
REMARK  154  A    between atoms: _394  and  _395
REMARK  155  A    between atoms: _398  and  _400
REMARK  156  A    between atoms: _400  and  _401
REMARK  157  A    between atoms: _400  and  _403
REMARK  158  A    between atoms: _403  and  _404
REMARK  159  A    between atoms: _407  and  _409
REMARK  160  A    between atoms: _409  and  _410
REMARK  161  A    between atoms: _409  and  _412
REMARK  162  A    between atoms: _412  and  _413
REMARK  163  A    between atoms: _418  and  _420
REMARK  164  A    between atoms: _420  and  _421
REMARK  165  A    between atoms: _420  and  _423
REMARK  166  A    between atoms: _423  and  _424
REMARK  167  A    between atoms: _424  and  _425
REMARK  168  A    between atoms: _430  and  _432
REMARK  169  A    between atoms: _432  and  _433
REMARK  170  A    between atoms: _432  and  _435
REMARK  171  A    between atoms: _435  and  _436
REMARK  172  A    between atoms: _439  and  _441
REMARK  173  A    between atoms: _441  and  _442
REMARK  174  A    between atoms: _441  and  _444
REMARK  175  A    between atoms: _444  and  _445
REMARK  176  A    between atoms: _445  and  _446
REMARK  177  A    between atoms: _446  and  _447
REMARK  178  A    between atoms: _456  and  _458
REMARK  179  A    between atoms: _458  and  _459
REMARK  180  A    between atoms: _458  and  _461
REMARK  181  A    between atoms: _461  and  _462
REMARK  182  A    between atoms: _462  and  _463
REMARK  183  A    between atoms: _466  and  _468
REMARK  184  A    between atoms: _468  and  _469
REMARK  185  A    between atoms: _468  and  _471
REMARK  186  A    between atoms: _471  and  _472
REMARK  187  A    between atoms: _472  and  _473
REMARK  188  A    between atoms: _473  and  _474
REMARK  189  A    between atoms: _474  and  _475
REMARK  190  A    between atoms: _479  and  _481
REMARK  191  A    between atoms: _481  and  _482
REMARK  192  A    between atoms: _484  and  _486
REMARK  193  A    between atoms: _486  and  _487
REMARK  194  A    between atoms: _490  and  _492
REMARK  195  A    between atoms: _492  and  _493
REMARK  196  A    between atoms: _492  and  _495
REMARK  197  A    between atoms: _495  and  _496
REMARK  198  A    between atoms: _496  and  _497
REMARK  199  A    between atoms: _502  and  _504
REMARK  200  A    between atoms: _504  and  _505
REMARK  201  A    between atoms: _508  and  _510
REMARK  202  A    between atoms: _510  and  _511
REMARK  203  A    between atoms: _510  and  _513
REMARK  204  A    between atoms: _513  and  _514
REMARK  205  A    between atoms: _517  and  _519
REMARK  206  A    between atoms: _519  and  _520
REMARK  207  A    between atoms: _519  and  _522
REMARK  208  A    between atoms: _525  and  _527
REMARK  209  A    between atoms: _527  and  _528
REMARK  210  A    between atoms: _531  and  _533
REMARK  211  A    between atoms: _533  and  _534
REMARK  212  A    between atoms: _537  and  _539
REMARK  213  A    between atoms: _539  and  _540
REMARK  214  A    between atoms: _539  and  _542
REMARK  215  A    between atoms: _542  and  _543
REMARK                            x       y       z     vdW  Elec       q    Type
REMARK                         _______ _______ _______ _____ _____    ______ ____
ROOT
ATOM      1  C   GLN A   4     -30.492   6.076   6.623  0.00  0.00    +0.241 C 
ATOM      2  N   ALA A   5     -29.712   6.935   7.277  0.00  0.00    -0.297 N 
ATOM      3  H   ALA A   5     -29.212   7.672   6.740  0.00  0.00    +0.150 HD
ATOM      4  O   GLN A   4     -31.131   5.197   7.183  0.00  0.00    -0.273 OA
ENDROOT
BRANCH   2   5
ATOM      5  CA  ALA A   5     -29.537   6.873   8.738  0.00  0.00    +0.149 C 
ATOM      6  CB  ALA A   5     -28.536   7.903   9.214  0.00  0.00    +0.031 C 
BRANCH   5   7
ATOM      7  C   ALA A   5     -30.865   7.051   9.450  0.00  0.00    +0.241 C 
ATOM      8  O   ALA A   5     -31.113   6.427  10.484  0.00  0.00    -0.273 OA
ATOM      9  N   THR A   6     -31.741   7.879   8.892  0.00  0.00    -0.295 N 
ATOM     10  H   THR A   6     -31.515   8.332   7.983  0.00  0.00    +0.150 HD
BRANCH   9  11
ATOM     11  CA  THR A   6     -33.015   8.159   9.541  0.00  0.00    +0.176 C 
BRANCH  11  12
ATOM     12  C   THR A   6     -33.984   7.006   9.391  0.00  0.00    +0.243 C 
ATOM     13  O   THR A   6     -34.686   6.663  10.349  0.00  0.00    -0.273 OA
ATOM     14  N   VAL A   7     -34.011   6.395   8.208  0.00  0.00    -0.297 N 
ATOM     15  H   VAL A   7     -33.462   6.789   7.417  0.00  0.00    +0.150 HD
BRANCH  14  16
ATOM     16  CA  VAL A   7     -34.799   5.180   8.002  0.00  0.00    +0.149 C 
BRANCH  16  17
ATOM     17  C   VAL A   7     -34.341   4.160   9.039  0.00  0.00    +0.241 C 
ATOM     18  O   VAL A   7     -35.166   3.537   9.713  0.00  0.00    -0.273 OA
ATOM     19  N   ALA A   8     -33.023   4.021   9.197  0.00  0.00    -0.297 N 
ATOM     20  H   ALA A   8     -32.372   4.626   8.657  0.00  0.00    +0.150 HD
BRANCH  19  21
ATOM     21  CA  ALA A   8     -32.486   3.023  10.126  0.00  0.00    +0.149 C 
ATOM     22  CB  ALA A   8     -30.994   2.945  10.026  0.00  0.00    +0.031 C 
BRANCH  21  23
ATOM     23  C   ALA A   8     -32.912   3.328  11.547  0.00  0.00    +0.241 C 
ATOM     24  O   ALA A   8     -33.384   2.425  12.250  0.00  0.00    -0.273 OA
ATOM     25  N   ALA A   9     -32.755   4.577  11.978  0.00  0.00    -0.298 N 
ATOM     26  H   ALA A   9     -32.383   5.300  11.329  0.00  0.00    +0.150 HD
BRANCH  25  27
ATOM     27  CA  ALA A   9     -33.098   4.951  13.355  0.00  0.00    +0.137 C 
ATOM     28  CB  ALA A   9     -32.801   6.435  13.608  0.00  0.00    +0.030 C 
BRANCH  27  29
ATOM     29  C   ALA A   9     -34.565   4.626  13.643  0.00  0.00    +0.227 C 
ATOM     30  O   ALA A   9     -34.885   4.035  14.674  0.00  0.00    -0.286 OA
ENDBRANCH  27  29
ENDBRANCH  25  27
ENDBRANCH  21  23
ENDBRANCH  19  21
ENDBRANCH  16  17
BRANCH  16  31
ATOM     31  CB  VAL A   7     -34.630   4.596   6.560  0.00  0.00    +0.027 C 
ATOM     32  CG2 VAL A   7     -35.347   3.254   6.434  0.00  0.00    +0.002 C 
ATOM     33  CG1 VAL A   7     -35.190   5.558   5.511  0.00  0.00    +0.002 C 
ENDBRANCH  16  31
ENDBRANCH  14  16
ENDBRANCH  11  12
BRANCH  11  34
ATOM     34  CB  THR A   6     -33.610   9.502   9.069  0.00  0.00    +0.137 C 
ATOM     35  CG2 THR A   6     -34.887   9.831   9.811  0.00  0.00    +0.034 C 
BRANCH  34  36
ATOM     36  OG1 THR A   6     -32.660  10.529   9.335  0.00  0.00    -0.382 OA
ATOM     37  HG1 THR A   6     -31.822  10.337   8.844  0.00  0.00    +0.210 HD
ENDBRANCH  34  36
ENDBRANCH  11  34
ENDBRANCH   9  11
ENDBRANCH   5   7
ENDBRANCH   2   5
BRANCH   1  38
ATOM     38  CA  GLN A   4     -30.583   6.238   5.102  0.00  0.00    +0.149 C 
BRANCH  38  41
ATOM     39  C   ALA A   3     -31.874   8.323   5.189  0.00  0.00    +0.241 C 
ATOM     40  O   ALA A   3     -32.733   7.837   5.922  0.00  0.00    -0.273 OA
ATOM     41  N   GLN A   4     -30.823   7.638   4.747  0.00  0.00    -0.297 N 
ATOM     42  H   GLN A   4     -30.143   8.117   4.123  0.00  0.00    +0.150 HD
BRANCH  39  43
ATOM     43  CA  ALA A   3     -31.970   9.791   4.740  0.00  0.00    +0.149 C 
ATOM     44  CB  ALA A   3     -32.414   9.871   3.273  0.00  0.00    +0.031 C 
BRANCH  43  47
ATOM     45  C   GLY A   2     -30.148  10.669   6.109  0.00  0.00    +0.243 C 
ATOM     46  O   GLY A   2     -30.717  10.360   7.164  0.00  0.00    -0.273 OA
ATOM     47  N   ALA A   3     -30.700  10.487   4.909  0.00  0.00    -0.297 N 
ATOM     48  H   ALA A   3     -30.210  10.853   4.068  0.00  0.00    +0.150 HD
BRANCH  45  49
ATOM     49  CA  GLY A   2     -28.759  11.291   6.130  0.00  0.00    +0.176 C 
BRANCH  49  52
ATOM     50  C   LYS A   1     -27.532   9.449   5.133  0.00  0.00    +0.238 C 
ATOM     51  O   LYS A   1     -27.833   8.700   6.072  0.00  0.00    -0.274 OA
ATOM     52  N   GLY A   2     -27.891  10.726   5.097  0.00  0.00    -0.296 N 
ATOM     53  H   GLY A   2     -27.551  11.333   4.324  0.00  0.00    +0.150 HD
BRANCH  50  54
ATOM     54  CA  LYS A   1     -26.680   8.917   3.976  0.00  0.00    +0.145 C 
BRANCH  54  55
ATOM     55  N   LYS A   1     -26.944   9.589   2.699  0.00  0.00    -0.238 NA
ATOM     56  H   LYS A   1     -26.193  10.155   2.255  0.00  0.00    +0.142 HD
ENDBRANCH  54  55
BRANCH  54  57
ATOM     57  CB  LYS A   1     -25.199   8.997   4.340  0.00  0.00    +0.026 C 
BRANCH  57  58
ATOM     58  CG  LYS A   1     -24.864   8.259   5.644  0.00  0.00    -0.000 C 
BRANCH  58  59
ATOM     59  CD  LYS A   1     -23.452   7.710   5.661  0.00  0.00    -0.024 C 
BRANCH  59  60
ATOM     60  CE  LYS A   1     -23.266   6.754   6.821  0.00  0.00    -0.086 C 
BRANCH  60  61
ATOM     61  NZ  LYS A   1     -24.026   5.479   6.631  0.00  0.00    +0.380 N 
ATOM     62  HZ1 LYS A   1     -23.868   4.857   7.450  0.00  0.00    -0.089 HD
ATOM     63  HZ2 LYS A   1     -25.041   5.691   6.546  0.00  0.00    -0.089 HD
ATOM     64  HZ3 LYS A   1     -23.696   5.006   5.766  0.00  0.00    -0.089 HD
ENDBRANCH  60  61
ENDBRANCH  59  60
ENDBRANCH  58  59
ENDBRANCH  57  58
ENDBRANCH  54  57
ENDBRANCH  50  54
ENDBRANCH  49  52
ENDBRANCH  45  49
ENDBRANCH  43  47
ENDBRANCH  39  43
ENDBRANCH  38  41
BRANCH  38  65
ATOM     65  CB  GLN A   4     -29.302   5.736   4.467  0.00  0.00    +0.039 C 
BRANCH  65  66
ATOM     66  CG  GLN A   4     -29.346   5.598   2.949  0.00  0.00    +0.087 C 
BRANCH  66  67
ATOM     67  CD  GLN A   4     -27.967   5.368   2.349  0.00  0.00    +0.219 C 
ATOM     68  OE1 GLN A   4     -26.965   5.248   3.060  0.00  0.00    -0.275 OA
ATOM     69  NE2 GLN A   4     -27.911   5.299   1.029  0.00  0.00    -0.329 N 
ATOM     70 HE21 GLN A   4     -26.999   5.138   0.555  0.00  0.00    +0.145 HD
ATOM     71 HE22 GLN A   4     -28.779   5.405   0.465  0.00  0.00    +0.145 HD
ENDBRANCH  66  67
ENDBRANCH  65  66
ENDBRANCH  38  65
ENDBRANCH   1  38
TORSDOF 29
REMARK  Name = ../refined-set-2016/2c92/2c92_pocket.pdb
REMARK  215 active torsions:
REMARK  status: ('A' for Active; 'I' for Inactive)
REMARK    1  A    between atoms: _1  and  _3
REMARK    2  A    between atoms: _3  and  _4
REMARK    3  A    between atoms: _7  and  _9
REMARK    4  A    between atoms: _9  and  _10
REMARK    5  A    between atoms: _9  and  _12
REMARK    6  A    between atoms: _12  and  _13
REMARK    7  A    between atoms: _15  and  _17
REMARK    8  A    between atoms: _17  and  _18
REMARK    9  A    between atoms: _17  and  _20
REMARK   10  A    between atoms: _20  and  _21
REMARK   11  A    between atoms: _23  and  _25
REMARK   12  A    between atoms: _25  and  _26
REMARK   13  A    between atoms: _25  and  _28
REMARK   14  A    between atoms: _28  and  _29
REMARK   15  A    between atoms: _39  and  _41
REMARK   16  A    between atoms: _41  and  _42
REMARK   17  A    between atoms: _41  and  _44
REMARK   18  A    between atoms: _44  and  _45
REMARK   19  A    between atoms: _50  and  _52
REMARK   20  A    between atoms: _52  and  _53
REMARK   21  A    between atoms: _52  and  _55
REMARK   22  A    between atoms: _57  and  _59
REMARK   23  A    between atoms: _59  and  _60
REMARK   24  A    between atoms: _59  and  _62
REMARK   25  A    between atoms: _65  and  _67
REMARK   26  A    between atoms: _67  and  _68
REMARK   27  A    between atoms: _67  and  _70
REMARK   28  A    between atoms: _70  and  _71
REMARK   29  A    between atoms: _74  and  _76
REMARK   30  A    between atoms: _76  and  _77
REMARK   31  A    between atoms: _79  and  _81
REMARK   32  A    between atoms: _81  and  _82
REMARK   33  A    between atoms: _85  and  _87
REMARK   34  A    between atoms: _87  and  _88
REMARK   35  A    between atoms: _87  and  _90
REMARK   36  A    between atoms: _90  and  _91
REMARK   37  A    between atoms: _94  and  _96
REMARK   38  A    between atoms: _96  and  _97
REMARK   39  A    between atoms: _96  and  _99
REMARK   40  A    between atoms: _99  and  _100
REMARK   41  A    between atoms: _100  and  _101
REMARK   42  A    between atoms: _104  and  _106
REMARK   43  A    between atoms: _106  and  _107
REMARK   44  A    between atoms: _106  and  _109
REMARK   45  A    between atoms: _109  and  _110
REMARK   46  A    between atoms: _113  and  _115
REMARK   47  A    between atoms: _115  and  _116
REMARK   48  A    between atoms: _115  and  _118
REMARK   49  A    between atoms: _118  and  _119
REMARK   50  A    between atoms: _122  and  _124
REMARK   51  A    between atoms: _124  and  _125
REMARK   52  A    between atoms: _127  and  _129
REMARK   53  A    between atoms: _129  and  _130
REMARK   54  A    between atoms: _129  and  _132
REMARK   55  A    between atoms: _135  and  _137
REMARK   56  A    between atoms: _137  and  _138
REMARK   57  A    between atoms: _137  and  _140
REMARK   58  A    between atoms: _143  and  _145
REMARK   59  A    between atoms: _145  and  _146
REMARK   60  A    between atoms: _145  and  _148
REMARK   61  A    between atoms: _148  and  _149
REMARK   62  A    between atoms: _152  and  _154
REMARK   63  A    between atoms: _154  and  _155
REMARK   64  A    between atoms: _154  and  _157
REMARK   65  A    between atoms: _157  and  _158
REMARK   66  A    between atoms: _158  and  _159
REMARK   67  A    between atoms: _159  and  _160
REMARK   68  A    between atoms: _169  and  _171
REMARK   69  A    between atoms: _171  and  _172
REMARK   70  A    between atoms: _174  and  _176
REMARK   71  A    between atoms: _176  and  _177
REMARK   72  A    between atoms: _176  and  _179
REMARK   73  A    between atoms: _179  and  _180
REMARK   74  A    between atoms: _180  and  _181
REMARK   75  A    between atoms: _186  and  _188
REMARK   76  A    between atoms: _188  and  _189
REMARK   77  A    between atoms: _188  and  _191
REMARK   78  A    between atoms: _191  and  _192
REMARK   79  A    between atoms: _196  and  _197
REMARK   80  A    between atoms: _202  and  _204
REMARK   81  A    between atoms: _204  and  _205
REMARK   82  A    between atoms: _204  and  _207
REMARK   83  A    between atoms: _207  and  _208
REMARK   84  A    between atoms: _213  and  _215
REMARK   85  A    between atoms: _215  and  _216
REMARK   86  A    between atoms: _215  and  _218
REMARK   87  A    between atoms: _218  and  _219
REMARK   88  A    between atoms: _225  and  _227
REMARK   89  A    between atoms: _227  and  _228
REMARK   90  A    between atoms: _227  and  _230
REMARK   91  A    between atoms: _230  and  _231
REMARK   92  A    between atoms: _234  and  _236
REMARK   93  A    between atoms: _236  and  _237
REMARK   94  A    between atoms: _236  and  _239
REMARK   95  A    between atoms: _239  and  _240
REMARK   96  A    between atoms: _245  and  _246
REMARK   97  A    between atoms: _248  and  _250
REMARK   98  A    between atoms: _250  and  _251
REMARK   99  A    between atoms: _250  and  _253
REMARK  100  A    between atoms: _256  and  _258
REMARK  101  A    between atoms: _258  and  _259
REMARK  102  A    between atoms: _258  and  _261
REMARK  103  A    between atoms: _263  and  _265
REMARK  104  A    between atoms: _265  and  _266
REMARK  105  A    between atoms: _269  and  _271
REMARK  106  A    between atoms: _271  and  _272
REMARK  107  A    between atoms: _271  and  _274
REMARK  108  A    between atoms: _277  and  _279
REMARK  109  A    between atoms: _279  and  _280
REMARK  110  A    between atoms: _279  and  _282
REMARK  111  A    between atoms: _285  and  _287
REMARK  112  A    between atoms: _287  and  _288
REMARK  113  A    between atoms: _287  and  _290
REMARK  114  A    between atoms: _290  and  _291
REMARK  115  A    between atoms: _294  and  _296
REMARK  116  A    between atoms: _296  and  _297
REMARK  117  A    between atoms: _296  and  _299
REMARK  118  A    between atoms: _299  and  _300
REMARK  119  A    between atoms: _303  and  _305
REMARK  120  A    between atoms: _305  and  _306
REMARK  121  A    between atoms: _305  and  _308
REMARK  122  A    between atoms: _311  and  _313
REMARK  123  A    between atoms: _313  and  _314
REMARK  124  A    between atoms: _313  and  _316
REMARK  125  A    between atoms: _319  and  _321
REMARK  126  A    between atoms: _321  and  _322
REMARK  127  A    between atoms: _325  and  _327
REMARK  128  A    between atoms: _327  and  _328
REMARK  129  A    between atoms: _327  and  _330
REMARK  130  A    between atoms: _330  and  _331
REMARK  131  A    between atoms: _335  and  _336
REMARK  132  A    between atoms: _341  and  _343
REMARK  133  A    between atoms: _343  and  _344
REMARK  134  A    between atoms: _343  and  _346
REMARK  135  A    between atoms: _346  and  _347
REMARK  136  A    between atoms: _350  and  _352
REMARK  137  A    between atoms: _352  and  _353
REMARK  138  A    between atoms: _356  and  _358
REMARK  139  A    between atoms: _358  and  _359
REMARK  140  A    between atoms: _358  and  _361
REMARK  141  A    between atoms: _361  and  _362
REMARK  142  A    between atoms: _367  and  _369
REMARK  143  A    between atoms: _369  and  _370
REMARK  144  A    between atoms: _372  and  _374
REMARK  145  A    between atoms: _374  and  _375
REMARK  146  A    between atoms: _374  and  _377
REMARK  147  A    between atoms: _380  and  _382
REMARK  148  A    between atoms: _382  and  _383
REMARK  149  A    between atoms: _382  and  _385
REMARK  150  A    between atoms: _385  and  _386
REMARK  151  A    between atoms: _389  and  _391
REMARK  152  A    between atoms: _391  and  _392
REMARK  153  A    between atoms: _391  and  _394
REMARK  154  A    between atoms: _394  and  _395
REMARK  155  A    between atoms: _398  and  _400
REMARK  156  A    between atoms: _400  and  _401
REMARK  157  A    between atoms: _400  and  _403
REMARK  158  A    between atoms: _403  and  _404
REMARK  159  A    between atoms: _407  and  _409
REMARK  160  A    between atoms: _409  and  _410
REMARK  161  A    between atoms: _409  and  _412
REMARK  162  A    between atoms: _412  and  _413
REMARK  163  A    between atoms: _418  and  _420
REMARK  164  A    between atoms: _420  and  _421
REMARK  165  A    between atoms: _420  and  _423
REMARK  166  A    between atoms: _423  and  _424
REMARK  167  A    between atoms: _424  and  _425
REMARK  168  A    between atoms: _430  and  _432
REMARK  169  A    between atoms: _432  and  _433
REMARK  170  A    between atoms: _432  and  _435
REMARK  171  A    between atoms: _435  and  _436
REMARK  172  A    between atoms: _439  and  _441
REMARK  173  A    between atoms: _441  and  _442
REMARK  174  A    between atoms: _441  and  _444
REMARK  175  A    between atoms: _444  and  _445
REMARK  176  A    between atoms: _445  and  _446
REMARK  177  A    between atoms: _446  and  _447
REMARK  178  A    between atoms: _456  and  _458
REMARK  179  A    between atoms: _458  and  _459
REMARK  180  A    between atoms: _458  and  _461
REMARK  181  A    between atoms: _461  and  _462
REMARK  182  A    between atoms: _462  and  _463
REMARK  183  A    between atoms: _466  and  _468
REMARK  184  A    between atoms: _468  and  _469
REMARK  185  A    between atoms: _468  and  _471
REMARK  186  A    between atoms: _471  and  _472
REMARK  187  A    between atoms: _472  and  _473
REMARK  188  A    between atoms: _473  and  _474
REMARK  189  A    between atoms: _474  and  _475
REMARK  190  A    between atoms: _479  and  _481
REMARK  191  A    between atoms: _481  and  _482
REMARK  192  A    between atoms: _484  and  _486
REMARK  193  A    between atoms: _486  and  _487
REMARK  194  A    between atoms: _490  and  _492
REMARK  195  A    between atoms: _492  and  _493
REMARK  196  A    between atoms: _492  and  _495
REMARK  197  A    between atoms: _495  and  _496
REMARK  198  A    between atoms: _496  and  _497
REMARK  199  A    between atoms: _502  and  _504
REMARK  200  A    between atoms: _504  and  _505
REMARK  201  A    between atoms: _508  and  _510
REMARK  202  A    between atoms: _510  and  _511
REMARK  203  A    between atoms: _510  and  _513
REMARK  204  A    between atoms: _513  and  _514
REMARK  205  A    between atoms: _517  and  _519
REMARK  206  A    between atoms: _519  and  _520
REMARK  207  A    between atoms: _519  and  _522
REMARK  208  A    between atoms: _525  and  _527
REMARK  209  A    between atoms: _527  and  _528
REMARK  210  A    between atoms: _531  and  _533
REMARK  211  A    between atoms: _533  and  _534
REMARK  212  A    between atoms: _537  and  _539
REMARK  213  A    between atoms: _539  and  _540
REMARK  214  A    between atoms: _539  and  _542
REMARK  215  A    between atoms: _542  and  _543
REMARK                            x       y       z     vdW  Elec       q    Type
REMARK                         _______ _______ _______ _____ _____    ______ ____
ROOT
ATOM      1  CA  THR A   1     -34.971   0.192  14.745  0.00  0.00    +0.160 C 
ENDROOT
BRANCH   1   2
ATOM      2  N   THR A   1     -35.491   0.848  13.515  0.00  0.00    -0.237 NA
ATOM      3  H   THR A   1     -34.915   1.562  13.025  0.00  0.00    +0.142 HD
ENDBRANCH   1   2
BRANCH   1   4
ATOM      4  C   THR A   1     -35.783   0.544  16.000  0.00  0.00    +0.227 C 
ATOM      5  O   THR A   1     -36.071  -0.320  16.832  0.00  0.00    -0.287 OA
ENDBRANCH   1   4
BRANCH   1   6
ATOM      6  CB  THR A   1     -33.490   0.476  14.946  0.00  0.00    +0.134 C 
ATOM      7  CG2 THR A   1     -32.914  -0.467  15.996  0.00  0.00    +0.034 C 
BRANCH   6   8
ATOM      8  OG1 THR A   1     -32.803   0.292  13.699  0.00  0.00    -0.383 OA
ATOM      9  HG1 THR A   1     -33.174   0.915  13.024  0.00  0.00    +0.210 HD
ENDBRANCH   6   8
ENDBRANCH   1   6
TORSDOF 4
REMARK  Name = ../refined-set-2016/2c92/2c92_pocket.pdb
REMARK  215 active torsions:
REMARK  status: ('A' for Active; 'I' for Inactive)
REMARK    1  A    between atoms: _1  and  _3
REMARK    2  A    between atoms: _3  and  _4
REMARK    3  A    between atoms: _7  and  _9
REMARK    4  A    between atoms: _9  and  _10
REMARK    5  A    between atoms: _9  and  _12
REMARK    6  A    between atoms: _12  and  _13
REMARK    7  A    between atoms: _15  and  _17
REMARK    8  A    between atoms: _17  and  _18
REMARK    9  A    between atoms: _17  and  _20
REMARK   10  A    between atoms: _20  and  _21
REMARK   11  A    between atoms: _23  and  _25
REMARK   12  A    between atoms: _25  and  _26
REMARK   13  A    between atoms: _25  and  _28
REMARK   14  A    between atoms: _28  and  _29
REMARK   15  A    between atoms: _39  and  _41
REMARK   16  A    between atoms: _41  and  _42
REMARK   17  A    between atoms: _41  and  _44
REMARK   18  A    between atoms: _44  and  _45
REMARK   19  A    between atoms: _50  and  _52
REMARK   20  A    between atoms: _52  and  _53
REMARK   21  A    between atoms: _52  and  _55
REMARK   22  A    between atoms: _57  and  _59
REMARK   23  A    between atoms: _59  and  _60
REMARK   24  A    between atoms: _59  and  _62
REMARK   25  A    between atoms: _65  and  _67
REMARK   26  A    between atoms: _67  and  _68
REMARK   27  A    between atoms: _67  and  _70
REMARK   28  A    between atoms: _70  and  _71
REMARK   29  A    between atoms: _74  and  _76
REMARK   30  A    between atoms: _76  and  _77
REMARK   31  A    between atoms: _79  and  _81
REMARK   32  A    between atoms: _81  and  _82
REMARK   33  A    between atoms: _85  and  _87
REMARK   34  A    between atoms: _87  and  _88
REMARK   35  A    between atoms: _87  and  _90
REMARK   36  A    between atoms: _90  and  _91
REMARK   37  A    between atoms: _94  and  _96
REMARK   38  A    between atoms: _96  and  _97
REMARK   39  A    between atoms: _96  and  _99
REMARK   40  A    between atoms: _99  and  _100
REMARK   41  A    between atoms: _100  and  _101
REMARK   42  A    between atoms: _104  and  _106
REMARK   43  A    between atoms: _106  and  _107
REMARK   44  A    between atoms: _106  and  _109
REMARK   45  A    between atoms: _109  and  _110
REMARK   46  A    between atoms: _113  and  _115
REMARK   47  A    between atoms: _115  and  _116
REMARK   48  A    between atoms: _115  and  _118
REMARK   49  A    between atoms: _118  and  _119
REMARK   50  A    between atoms: _122  and  _124
REMARK   51  A    between atoms: _124  and  _125
REMARK   52  A    between atoms: _127  and  _129
REMARK   53  A    between atoms: _129  and  _130
REMARK   54  A    between atoms: _129  and  _132
REMARK   55  A    between atoms: _135  and  _137
REMARK   56  A    between atoms: _137  and  _138
REMARK   57  A    between atoms: _137  and  _140
REMARK   58  A    between atoms: _143  and  _145
REMARK   59  A    between atoms: _145  and  _146
REMARK   60  A    between atoms: _145  and  _148
REMARK   61  A    between atoms: _148  and  _149
REMARK   62  A    between atoms: _152  and  _154
REMARK   63  A    between atoms: _154  and  _155
REMARK   64  A    between atoms: _154  and  _157
REMARK   65  A    between atoms: _157  and  _158
REMARK   66  A    between atoms: _158  and  _159
REMARK   67  A    between atoms: _159  and  _160
REMARK   68  A    between atoms: _169  and  _171
REMARK   69  A    between atoms: _171  and  _172
REMARK   70  A    between atoms: _174  and  _176
REMARK   71  A    between atoms: _176  and  _177
REMARK   72  A    between atoms: _176  and  _179
REMARK   73  A    between atoms: _179  and  _180
REMARK   74  A    between atoms: _180  and  _181
REMARK   75  A    between atoms: _186  and  _188
REMARK   76  A    between atoms: _188  and  _189
REMARK   77  A    between atoms: _188  and  _191
REMARK   78  A    between atoms: _191  and  _192
REMARK   79  A    between atoms: _196  and  _197
REMARK   80  A    between atoms: _202  and  _204
REMARK   81  A    between atoms: _204  and  _205
REMARK   82  A    between atoms: _204  and  _207
REMARK   83  A    between atoms: _207  and  _208
REMARK   84  A    between atoms: _213  and  _215
REMARK   85  A    between atoms: _215  and  _216
REMARK   86  A    between atoms: _215  and  _218
REMARK   87  A    between atoms: _218  and  _219
REMARK   88  A    between atoms: _225  and  _227
REMARK   89  A    between atoms: _227  and  _228
REMARK   90  A    between atoms: _227  and  _230
REMARK   91  A    between atoms: _230  and  _231
REMARK   92  A    between atoms: _234  and  _236
REMARK   93  A    between atoms: _236  and  _237
REMARK   94  A    between atoms: _236  and  _239
REMARK   95  A    between atoms: _239  and  _240
REMARK   96  A    between atoms: _245  and  _246
REMARK   97  A    between atoms: _248  and  _250
REMARK   98  A    between atoms: _250  and  _251
REMARK   99  A    between atoms: _250  and  _253
REMARK  100  A    between atoms: _256  and  _258
REMARK  101  A    between atoms: _258  and  _259
REMARK  102  A    between atoms: _258  and  _261
REMARK  103  A    between atoms: _263  and  _265
REMARK  104  A    between atoms: _265  and  _266
REMARK  105  A    between atoms: _269  and  _271
REMARK  106  A    between atoms: _271  and  _272
REMARK  107  A    between atoms: _271  and  _274
REMARK  108  A    between atoms: _277  and  _279
REMARK  109  A    between atoms: _279  and  _280
REMARK  110  A    between atoms: _279  and  _282
REMARK  111  A    between atoms: _285  and  _287
REMARK  112  A    between atoms: _287  and  _288
REMARK  113  A    between atoms: _287  and  _290
REMARK  114  A    between atoms: _290  and  _291
REMARK  115  A    between atoms: _294  and  _296
REMARK  116  A    between atoms: _296  and  _297
REMARK  117  A    between atoms: _296  and  _299
REMARK  118  A    between atoms: _299  and  _300
REMARK  119  A    between atoms: _303  and  _305
REMARK  120  A    between atoms: _305  and  _306
REMARK  121  A    between atoms: _305  and  _308
REMARK  122  A    between atoms: _311  and  _313
REMARK  123  A    between atoms: _313  and  _314
REMARK  124  A    between atoms: _313  and  _316
REMARK  125  A    between atoms: _319  and  _321
REMARK  126  A    between atoms: _321  and  _322
REMARK  127  A    between atoms: _325  and  _327
REMARK  128  A    between atoms: _327  and  _328
REMARK  129  A    between atoms: _327  and  _330
REMARK  130  A    between atoms: _330  and  _331
REMARK  131  A    between atoms: _335  and  _336
REMARK  132  A    between atoms: _341  and  _343
REMARK  133  A    between atoms: _343  and  _344
REMARK  134  A    between atoms: _343  and  _346
REMARK  135  A    between atoms: _346  and  _347
REMARK  136  A    between atoms: _350  and  _352
REMARK  137  A    between atoms: _352  and  _353
REMARK  138  A    between atoms: _356  and  _358
REMARK  139  A    between atoms: _358  and  _359
REMARK  140  A    between atoms: _358  and  _361
REMARK  141  A    between atoms: _361  and  _362
REMARK  142  A    between atoms: _367  and  _369
REMARK  143  A    between atoms: _369  and  _370
REMARK  144  A    between atoms: _372  and  _374
REMARK  145  A    between atoms: _374  and  _375
REMARK  146  A    between atoms: _374  and  _377
REMARK  147  A    between atoms: _380  and  _382
REMARK  148  A    between atoms: _382  and  _383
REMARK  149  A    between atoms: _382  and  _385
REMARK  150  A    between atoms: _385  and  _386
REMARK  151  A    between atoms: _389  and  _391
REMARK  152  A    between atoms: _391  and  _392
REMARK  153  A    between atoms: _391  and  _394
REMARK  154  A    between atoms: _394  and  _395
REMARK  155  A    between atoms: _398  and  _400
REMARK  156  A    between atoms: _400  and  _401
REMARK  157  A    between atoms: _400  and  _403
REMARK  158  A    between atoms: _403  and  _404
REMARK  159  A    between atoms: _407  and  _409
REMARK  160  A    between atoms: _409  and  _410
REMARK  161  A    between atoms: _409  and  _412
REMARK  162  A    between atoms: _412  and  _413
REMARK  163  A    between atoms: _418  and  _420
REMARK  164  A    between atoms: _420  and  _421
REMARK  165  A    between atoms: _420  and  _423
REMARK  166  A    between atoms: _423  and  _424
REMARK  167  A    between atoms: _424  and  _425
REMARK  168  A    between atoms: _430  and  _432
REMARK  169  A    between atoms: _432  and  _433
REMARK  170  A    between atoms: _432  and  _435
REMARK  171  A    between atoms: _435  and  _436
REMARK  172  A    between atoms: _439  and  _441
REMARK  173  A    between atoms: _441  and  _442
REMARK  174  A    between atoms: _441  and  _444
REMARK  175  A    between atoms: _444  and  _445
REMARK  176  A    between atoms: _445  and  _446
REMARK  177  A    between atoms: _446  and  _447
REMARK  178  A    between atoms: _456  and  _458
REMARK  179  A    between atoms: _458  and  _459
REMARK  180  A    between atoms: _458  and  _461
REMARK  181  A    between atoms: _461  and  _462
REMARK  182  A    between atoms: _462  and  _463
REMARK  183  A    between atoms: _466  and  _468
REMARK  184  A    between atoms: _468  and  _469
REMARK  185  A    between atoms: _468  and  _471
REMARK  186  A    between atoms: _471  and  _472
REMARK  187  A    between atoms: _472  and  _473
REMARK  188  A    between atoms: _473  and  _474
REMARK  189  A    between atoms: _474  and  _475
REMARK  190  A    between atoms: _479  and  _481
REMARK  191  A    between atoms: _481  and  _482
REMARK  192  A    between atoms: _484  and  _486
REMARK  193  A    between atoms: _486  and  _487
REMARK  194  A    between atoms: _490  and  _492
REMARK  195  A    between atoms: _492  and  _493
REMARK  196  A    between atoms: _492  and  _495
REMARK  197  A    between atoms: _495  and  _496
REMARK  198  A    between atoms: _496  and  _497
REMARK  199  A    between atoms: _502  and  _504
REMARK  200  A    between atoms: _504  and  _505
REMARK  201  A    between atoms: _508  and  _510
REMARK  202  A    between atoms: _510  and  _511
REMARK  203  A    between atoms: _510  and  _513
REMARK  204  A    between atoms: _513  and  _514
REMARK  205  A    between atoms: _517  and  _519
REMARK  206  A    between atoms: _519  and  _520
REMARK  207  A    between atoms: _519  and  _522
REMARK  208  A    between atoms: _525  and  _527
REMARK  209  A    between atoms: _527  and  _528
REMARK  210  A    between atoms: _531  and  _533
REMARK  211  A    between atoms: _533  and  _534
REMARK  212  A    between atoms: _537  and  _539
REMARK  213  A    between atoms: _539  and  _540
REMARK  214  A    between atoms: _539  and  _542
REMARK  215  A    between atoms: _542  and  _543
REMARK                            x       y       z     vdW  Elec       q    Type
REMARK                         _______ _______ _______ _____ _____    ______ ____
ROOT
ATOM      1  O   HOH     1     -32.797   1.866   3.412  0.00  0.00    +0.000 OA
ENDROOT
TORSDOF 0
REMARK  Name = ../refined-set-2016/2c92/2c92_pocket.pdb
REMARK  215 active torsions:
REMARK  status: ('A' for Active; 'I' for Inactive)
REMARK    1  A    between atoms: _1  and  _3
REMARK    2  A    between atoms: _3  and  _4
REMARK    3  A    between atoms: _7  and  _9
REMARK    4  A    between atoms: _9  and  _10
REMARK    5  A    between atoms: _9  and  _12
REMARK    6  A    between atoms: _12  and  _13
REMARK    7  A    between atoms: _15  and  _17
REMARK    8  A    between atoms: _17  and  _18
REMARK    9  A    between atoms: _17  and  _20
REMARK   10  A    between atoms: _20  and  _21
REMARK   11  A    between atoms: _23  and  _25
REMARK   12  A    between atoms: _25  and  _26
REMARK   13  A    between atoms: _25  and  _28
REMARK   14  A    between atoms: _28  and  _29
REMARK   15  A    between atoms: _39  and  _41
REMARK   16  A    between atoms: _41  and  _42
REMARK   17  A    between atoms: _41  and  _44
REMARK   18  A    between atoms: _44  and  _45
REMARK   19  A    between atoms: _50  and  _52
REMARK   20  A    between atoms: _52  and  _53
REMARK   21  A    between atoms: _52  and  _55
REMARK   22  A    between atoms: _57  and  _59
REMARK   23  A    between atoms: _59  and  _60
REMARK   24  A    between atoms: _59  and  _62
REMARK   25  A    between atoms: _65  and  _67
REMARK   26  A    between atoms: _67  and  _68
REMARK   27  A    between atoms: _67  and  _70
REMARK   28  A    between atoms: _70  and  _71
REMARK   29  A    between atoms: _74  and  _76
REMARK   30  A    between atoms: _76  and  _77
REMARK   31  A    between atoms: _79  and  _81
REMARK   32  A    between atoms: _81  and  _82
REMARK   33  A    between atoms: _85  and  _87
REMARK   34  A    between atoms: _87  and  _88
REMARK   35  A    between atoms: _87  and  _90
REMARK   36  A    between atoms: _90  and  _91
REMARK   37  A    between atoms: _94  and  _96
REMARK   38  A    between atoms: _96  and  _97
REMARK   39  A    between atoms: _96  and  _99
REMARK   40  A    between atoms: _99  and  _100
REMARK   41  A    between atoms: _100  and  _101
REMARK   42  A    between atoms: _104  and  _106
REMARK   43  A    between atoms: _106  and  _107
REMARK   44  A    between atoms: _106  and  _109
REMARK   45  A    between atoms: _109  and  _110
REMARK   46  A    between atoms: _113  and  _115
REMARK   47  A    between atoms: _115  and  _116
REMARK   48  A    between atoms: _115  and  _118
REMARK   49  A    between atoms: _118  and  _119
REMARK   50  A    between atoms: _122  and  _124
REMARK   51  A    between atoms: _124  and  _125
REMARK   52  A    between atoms: _127  and  _129
REMARK   53  A    between atoms: _129  and  _130
REMARK   54  A    between atoms: _129  and  _132
REMARK   55  A    between atoms: _135  and  _137
REMARK   56  A    between atoms: _137  and  _138
REMARK   57  A    between atoms: _137  and  _140
REMARK   58  A    between atoms: _143  and  _145
REMARK   59  A    between atoms: _145  and  _146
REMARK   60  A    between atoms: _145  and  _148
REMARK   61  A    between atoms: _148  and  _149
REMARK   62  A    between atoms: _152  and  _154
REMARK   63  A    between atoms: _154  and  _155
REMARK   64  A    between atoms: _154  and  _157
REMARK   65  A    between atoms: _157  and  _158
REMARK   66  A    between atoms: _158  and  _159
REMARK   67  A    between atoms: _159  and  _160
REMARK   68  A    between atoms: _169  and  _171
REMARK   69  A    between atoms: _171  and  _172
REMARK   70  A    between atoms: _174  and  _176
REMARK   71  A    between atoms: _176  and  _177
REMARK   72  A    between atoms: _176  and  _179
REMARK   73  A    between atoms: _179  and  _180
REMARK   74  A    between atoms: _180  and  _181
REMARK   75  A    between atoms: _186  and  _188
REMARK   76  A    between atoms: _188  and  _189
REMARK   77  A    between atoms: _188  and  _191
REMARK   78  A    between atoms: _191  and  _192
REMARK   79  A    between atoms: _196  and  _197
REMARK   80  A    between atoms: _202  and  _204
REMARK   81  A    between atoms: _204  and  _205
REMARK   82  A    between atoms: _204  and  _207
REMARK   83  A    between atoms: _207  and  _208
REMARK   84  A    between atoms: _213  and  _215
REMARK   85  A    between atoms: _215  and  _216
REMARK   86  A    between atoms: _215  and  _218
REMARK   87  A    between atoms: _218  and  _219
REMARK   88  A    between atoms: _225  and  _227
REMARK   89  A    between atoms: _227  and  _228
REMARK   90  A    between atoms: _227  and  _230
REMARK   91  A    between atoms: _230  and  _231
REMARK   92  A    between atoms: _234  and  _236
REMARK   93  A    between atoms: _236  and  _237
REMARK   94  A    between atoms: _236  and  _239
REMARK   95  A    between atoms: _239  and  _240
REMARK   96  A    between atoms: _245  and  _246
REMARK   97  A    between atoms: _248  and  _250
REMARK   98  A    between atoms: _250  and  _251
REMARK   99  A    between atoms: _250  and  _253
REMARK  100  A    between atoms: _256  and  _258
REMARK  101  A    between atoms: _258  and  _259
REMARK  102  A    between atoms: _258  and  _261
REMARK  103  A    between atoms: _263  and  _265
REMARK  104  A    between atoms: _265  and  _266
REMARK  105  A    between atoms: _269  and  _271
REMARK  106  A    between atoms: _271  and  _272
REMARK  107  A    between atoms: _271  and  _274
REMARK  108  A    between atoms: _277  and  _279
REMARK  109  A    between atoms: _279  and  _280
REMARK  110  A    between atoms: _279  and  _282
REMARK  111  A    between atoms: _285  and  _287
REMARK  112  A    between atoms: _287  and  _288
REMARK  113  A    between atoms: _287  and  _290
REMARK  114  A    between atoms: _290  and  _291
REMARK  115  A    between atoms: _294  and  _296
REMARK  116  A    between atoms: _296  and  _297
REMARK  117  A    between atoms: _296  and  _299
REMARK  118  A    between atoms: _299  and  _300
REMARK  119  A    between atoms: _303  and  _305
REMARK  120  A    between atoms: _305  and  _306
REMARK  121  A    between atoms: _305  and  _308
REMARK  122  A    between atoms: _311  and  _313
REMARK  123  A    between atoms: _313  and  _314
REMARK  124  A    between atoms: _313  and  _316
REMARK  125  A    between atoms: _319  and  _321
REMARK  126  A    between atoms: _321  and  _322
REMARK  127  A    between atoms: _325  and  _327
REMARK  128  A    between atoms: _327  and  _328
REMARK  129  A    between atoms: _327  and  _330
REMARK  130  A    between atoms: _330  and  _331
REMARK  131  A    between atoms: _335  and  _336
REMARK  132  A    between atoms: _341  and  _343
REMARK  133  A    between atoms: _343  and  _344
REMARK  134  A    between atoms: _343  and  _346
REMARK  135  A    between atoms: _346  and  _347
REMARK  136  A    between atoms: _350  and  _352
REMARK  137  A    between atoms: _352  and  _353
REMARK  138  A    between atoms: _356  and  _358
REMARK  139  A    between atoms: _358  and  _359
REMARK  140  A    between atoms: _358  and  _361
REMARK  141  A    between atoms: _361  and  _362
REMARK  142  A    between atoms: _367  and  _369
REMARK  143  A    between atoms: _369  and  _370
REMARK  144  A    between atoms: _372  and  _374
REMARK  145  A    between atoms: _374  and  _375
REMARK  146  A    between atoms: _374  and  _377
REMARK  147  A    between atoms: _380  and  _382
REMARK  148  A    between atoms: _382  and  _383
REMARK  149  A    between atoms: _382  and  _385
REMARK  150  A    between atoms: _385  and  _386
REMARK  151  A    between atoms: _389  and  _391
REMARK  152  A    between atoms: _391  and  _392
REMARK  153  A    between atoms: _391  and  _394
REMARK  154  A    between atoms: _394  and  _395
REMARK  155  A    between atoms: _398  and  _400
REMARK  156  A    between atoms: _400  and  _401
REMARK  157  A    between atoms: _400  and  _403
REMARK  158  A    between atoms: _403  and  _404
REMARK  159  A    between atoms: _407  and  _409
REMARK  160  A    between atoms: _409  and  _410
REMARK  161  A    between atoms: _409  and  _412
REMARK  162  A    between atoms: _412  and  _413
REMARK  163  A    between atoms: _418  and  _420
REMARK  164  A    between atoms: _420  and  _421
REMARK  165  A    between atoms: _420  and  _423
REMARK  166  A    between atoms: _423  and  _424
REMARK  167  A    between atoms: _424  and  _425
REMARK  168  A    between atoms: _430  and  _432
REMARK  169  A    between atoms: _432  and  _433
REMARK  170  A    between atoms: _432  and  _435
REMARK  171  A    between atoms: _435  and  _436
REMARK  172  A    between atoms: _439  and  _441
REMARK  173  A    between atoms: _441  and  _442
REMARK  174  A    between atoms: _441  and  _444
REMARK  175  A    between atoms: _444  and  _445
REMARK  176  A    between atoms: _445  and  _446
REMARK  177  A    between atoms: _446  and  _447
REMARK  178  A    between atoms: _456  and  _458
REMARK  179  A    between atoms: _458  and  _459
REMARK  180  A    between atoms: _458  and  _461
REMARK  181  A    between atoms: _461  and  _462
REMARK  182  A    between atoms: _462  and  _463
REMARK  183  A    between atoms: _466  and  _468
REMARK  184  A    between atoms: _468  and  _469
REMARK  185  A    between atoms: _468  and  _471
REMARK  186  A    between atoms: _471  and  _472
REMARK  187  A    between atoms: _472  and  _473
REMARK  188  A    between atoms: _473  and  _474
REMARK  189  A    between atoms: _474  and  _475
REMARK  190  A    between atoms: _479  and  _481
REMARK  191  A    between atoms: _481  and  _482
REMARK  192  A    between atoms: _484  and  _486
REMARK  193  A    between atoms: _486  and  _487
REMARK  194  A    between atoms: _490  and  _492
REMARK  195  A    between atoms: _492  and  _493
REMARK  196  A    between atoms: _492  and  _495
REMARK  197  A    between atoms: _495  and  _496
REMARK  198  A    between atoms: _496  and  _497
REMARK  199  A    between atoms: _502  and  _504
REMARK  200  A    between atoms: _504  and  _505
REMARK  201  A    between atoms: _508  and  _510
REMARK  202  A    between atoms: _510  and  _511
REMARK  203  A    between atoms: _510  and  _513
REMARK  204  A    between atoms: _513  and  _514
REMARK  205  A    between atoms: _517  and  _519
REMARK  206  A    between atoms: _519  and  _520
REMARK  207  A    between atoms: _519  and  _522
REMARK  208  A    between atoms: _525  and  _527
REMARK  209  A    between atoms: _527  and  _528
REMARK  210  A    between atoms: _531  and  _533
REMARK  211  A    between atoms: _533  and  _534
REMARK  212  A    between atoms: _537  and  _539
REMARK  213  A    between atoms: _539  and  _540
REMARK  214  A    between atoms: _539  and  _542
REMARK  215  A    between atoms: _542  and  _543
REMARK                            x       y       z     vdW  Elec       q    Type
REMARK                         _______ _______ _______ _____ _____    ______ ____
ROOT
ATOM      1  O   HOH     1     -28.304  -1.125   0.332  0.00  0.00    +0.000 OA
ENDROOT
TORSDOF 0
REMARK  Name = ../refined-set-2016/2c92/2c92_pocket.pdb
REMARK  215 active torsions:
REMARK  status: ('A' for Active; 'I' for Inactive)
REMARK    1  A    between atoms: _1  and  _3
REMARK    2  A    between atoms: _3  and  _4
REMARK    3  A    between atoms: _7  and  _9
REMARK    4  A    between atoms: _9  and  _10
REMARK    5  A    between atoms: _9  and  _12
REMARK    6  A    between atoms: _12  and  _13
REMARK    7  A    between atoms: _15  and  _17
REMARK    8  A    between atoms: _17  and  _18
REMARK    9  A    between atoms: _17  and  _20
REMARK   10  A    between atoms: _20  and  _21
REMARK   11  A    between atoms: _23  and  _25
REMARK   12  A    between atoms: _25  and  _26
REMARK   13  A    between atoms: _25  and  _28
REMARK   14  A    between atoms: _28  and  _29
REMARK   15  A    between atoms: _39  and  _41
REMARK   16  A    between atoms: _41  and  _42
REMARK   17  A    between atoms: _41  and  _44
REMARK   18  A    between atoms: _44  and  _45
REMARK   19  A    between atoms: _50  and  _52
REMARK   20  A    between atoms: _52  and  _53
REMARK   21  A    between atoms: _52  and  _55
REMARK   22  A    between atoms: _57  and  _59
REMARK   23  A    between atoms: _59  and  _60
REMARK   24  A    between atoms: _59  and  _62
REMARK   25  A    between atoms: _65  and  _67
REMARK   26  A    between atoms: _67  and  _68
REMARK   27  A    between atoms: _67  and  _70
REMARK   28  A    between atoms: _70  and  _71
REMARK   29  A    between atoms: _74  and  _76
REMARK   30  A    between atoms: _76  and  _77
REMARK   31  A    between atoms: _79  and  _81
REMARK   32  A    between atoms: _81  and  _82
REMARK   33  A    between atoms: _85  and  _87
REMARK   34  A    between atoms: _87  and  _88
REMARK   35  A    between atoms: _87  and  _90
REMARK   36  A    between atoms: _90  and  _91
REMARK   37  A    between atoms: _94  and  _96
REMARK   38  A    between atoms: _96  and  _97
REMARK   39  A    between atoms: _96  and  _99
REMARK   40  A    between atoms: _99  and  _100
REMARK   41  A    between atoms: _100  and  _101
REMARK   42  A    between atoms: _104  and  _106
REMARK   43  A    between atoms: _106  and  _107
REMARK   44  A    between atoms: _106  and  _109
REMARK   45  A    between atoms: _109  and  _110
REMARK   46  A    between atoms: _113  and  _115
REMARK   47  A    between atoms: _115  and  _116
REMARK   48  A    between atoms: _115  and  _118
REMARK   49  A    between atoms: _118  and  _119
REMARK   50  A    between atoms: _122  and  _124
REMARK   51  A    between atoms: _124  and  _125
REMARK   52  A    between atoms: _127  and  _129
REMARK   53  A    between atoms: _129  and  _130
REMARK   54  A    between atoms: _129  and  _132
REMARK   55  A    between atoms: _135  and  _137
REMARK   56  A    between atoms: _137  and  _138
REMARK   57  A    between atoms: _137  and  _140
REMARK   58  A    between atoms: _143  and  _145
REMARK   59  A    between atoms: _145  and  _146
REMARK   60  A    between atoms: _145  and  _148
REMARK   61  A    between atoms: _148  and  _149
REMARK   62  A    between atoms: _152  and  _154
REMARK   63  A    between atoms: _154  and  _155
REMARK   64  A    between atoms: _154  and  _157
REMARK   65  A    between atoms: _157  and  _158
REMARK   66  A    between atoms: _158  and  _159
REMARK   67  A    between atoms: _159  and  _160
REMARK   68  A    between atoms: _169  and  _171
REMARK   69  A    between atoms: _171  and  _172
REMARK   70  A    between atoms: _174  and  _176
REMARK   71  A    between atoms: _176  and  _177
REMARK   72  A    between atoms: _176  and  _179
REMARK   73  A    between atoms: _179  and  _180
REMARK   74  A    between atoms: _180  and  _181
REMARK   75  A    between atoms: _186  and  _188
REMARK   76  A    between atoms: _188  and  _189
REMARK   77  A    between atoms: _188  and  _191
REMARK   78  A    between atoms: _191  and  _192
REMARK   79  A    between atoms: _196  and  _197
REMARK   80  A    between atoms: _202  and  _204
REMARK   81  A    between atoms: _204  and  _205
REMARK   82  A    between atoms: _204  and  _207
REMARK   83  A    between atoms: _207  and  _208
REMARK   84  A    between atoms: _213  and  _215
REMARK   85  A    between atoms: _215  and  _216
REMARK   86  A    between atoms: _215  and  _218
REMARK   87  A    between atoms: _218  and  _219
REMARK   88  A    between atoms: _225  and  _227
REMARK   89  A    between atoms: _227  and  _228
REMARK   90  A    between atoms: _227  and  _230
REMARK   91  A    between atoms: _230  and  _231
REMARK   92  A    between atoms: _234  and  _236
REMARK   93  A    between atoms: _236  and  _237
REMARK   94  A    between atoms: _236  and  _239
REMARK   95  A    between atoms: _239  and  _240
REMARK   96  A    between atoms: _245  and  _246
REMARK   97  A    between atoms: _248  and  _250
REMARK   98  A    between atoms: _250  and  _251
REMARK   99  A    between atoms: _250  and  _253
REMARK  100  A    between atoms: _256  and  _258
REMARK  101  A    between atoms: _258  and  _259
REMARK  102  A    between atoms: _258  and  _261
REMARK  103  A    between atoms: _263  and  _265
REMARK  104  A    between atoms: _265  and  _266
REMARK  105  A    between atoms: _269  and  _271
REMARK  106  A    between atoms: _271  and  _272
REMARK  107  A    between atoms: _271  and  _274
REMARK  108  A    between atoms: _277  and  _279
REMARK  109  A    between atoms: _279  and  _280
REMARK  110  A    between atoms: _279  and  _282
REMARK  111  A    between atoms: _285  and  _287
REMARK  112  A    between atoms: _287  and  _288
REMARK  113  A    between atoms: _287  and  _290
REMARK  114  A    between atoms: _290  and  _291
REMARK  115  A    between atoms: _294  and  _296
REMARK  116  A    between atoms: _296  and  _297
REMARK  117  A    between atoms: _296  and  _299
REMARK  118  A    between atoms: _299  and  _300
REMARK  119  A    between atoms: _303  and  _305
REMARK  120  A    between atoms: _305  and  _306
REMARK  121  A    between atoms: _305  and  _308
REMARK  122  A    between atoms: _311  and  _313
REMARK  123  A    between atoms: _313  and  _314
REMARK  124  A    between atoms: _313  and  _316
REMARK  125  A    between atoms: _319  and  _321
REMARK  126  A    between atoms: _321  and  _322
REMARK  127  A    between atoms: _325  and  _327
REMARK  128  A    between atoms: _327  and  _328
REMARK  129  A    between atoms: _327  and  _330
REMARK  130  A    between atoms: _330  and  _331
REMARK  131  A    between atoms: _335  and  _336
REMARK  132  A    between atoms: _341  and  _343
REMARK  133  A    between atoms: _343  and  _344
REMARK  134  A    between atoms: _343  and  _346
REMARK  135  A    between atoms: _346  and  _347
REMARK  136  A    between atoms: _350  and  _352
REMARK  137  A    between atoms: _352  and  _353
REMARK  138  A    between atoms: _356  and  _358
REMARK  139  A    between atoms: _358  and  _359
REMARK  140  A    between atoms: _358  and  _361
REMARK  141  A    between atoms: _361  and  _362
REMARK  142  A    between atoms: _367  and  _369
REMARK  143  A    between atoms: _369  and  _370
REMARK  144  A    between atoms: _372  and  _374
REMARK  145  A    between atoms: _374  and  _375
REMARK  146  A    between atoms: _374  and  _377
REMARK  147  A    between atoms: _380  and  _382
REMARK  148  A    between atoms: _382  and  _383
REMARK  149  A    between atoms: _382  and  _385
REMARK  150  A    between atoms: _385  and  _386
REMARK  151  A    between atoms: _389  and  _391
REMARK  152  A    between atoms: _391  and  _392
REMARK  153  A    between atoms: _391  and  _394
REMARK  154  A    between atoms: _394  and  _395
REMARK  155  A    between atoms: _398  and  _400
REMARK  156  A    between atoms: _400  and  _401
REMARK  157  A    between atoms: _400  and  _403
REMARK  158  A    between atoms: _403  and  _404
REMARK  159  A    between atoms: _407  and  _409
REMARK  160  A    between atoms: _409  and  _410
REMARK  161  A    between atoms: _409  and  _412
REMARK  162  A    between atoms: _412  and  _413
REMARK  163  A    between atoms: _418  and  _420
REMARK  164  A    between atoms: _420  and  _421
REMARK  165  A    between atoms: _420  and  _423
REMARK  166  A    between atoms: _423  and  _424
REMARK  167  A    between atoms: _424  and  _425
REMARK  168  A    between atoms: _430  and  _432
REMARK  169  A    between atoms: _432  and  _433
REMARK  170  A    between atoms: _432  and  _435
REMARK  171  A    between atoms: _435  and  _436
REMARK  172  A    between atoms: _439  and  _441
REMARK  173  A    between atoms: _441  and  _442
REMARK  174  A    between atoms: _441  and  _444
REMARK  175  A    between atoms: _444  and  _445
REMARK  176  A    between atoms: _445  and  _446
REMARK  177  A    between atoms: _446  and  _447
REMARK  178  A    between atoms: _456  and  _458
REMARK  179  A    between atoms: _458  and  _459
REMARK  180  A    between atoms: _458  and  _461
REMARK  181  A    between atoms: _461  and  _462
REMARK  182  A    between atoms: _462  and  _463
REMARK  183  A    between atoms: _466  and  _468
REMARK  184  A    between atoms: _468  and  _469
REMARK  185  A    between atoms: _468  and  _471
REMARK  186  A    between atoms: _471  and  _472
REMARK  187  A    between atoms: _472  and  _473
REMARK  188  A    between atoms: _473  and  _474
REMARK  189  A    between atoms: _474  and  _475
REMARK  190  A    between atoms: _479  and  _481
REMARK  191  A    between atoms: _481  and  _482
REMARK  192  A    between atoms: _484  and  _486
REMARK  193  A    between atoms: _486  and  _487
REMARK  194  A    between atoms: _490  and  _492
REMARK  195  A    between atoms: _492  and  _493
REMARK  196  A    between atoms: _492  and  _495
REMARK  197  A    between atoms: _495  and  _496
REMARK  198  A    between atoms: _496  and  _497
REMARK  199  A    between atoms: _502  and  _504
REMARK  200  A    between atoms: _504  and  _505
REMARK  201  A    between atoms: _508  and  _510
REMARK  202  A    between atoms: _510  and  _511
REMARK  203  A    between atoms: _510  and  _513
REMARK  204  A    between atoms: _513  and  _514
REMARK  205  A    between atoms: _517  and  _519
REMARK  206  A    between atoms: _519  and  _520
REMARK  207  A    between atoms: _519  and  _522
REMARK  208  A    between atoms: _525  and  _527
REMARK  209  A    between atoms: _527  and  _528
REMARK  210  A    between atoms: _531  and  _533
REMARK  211  A    between atoms: _533  and  _534
REMARK  212  A    between atoms: _537  and  _539
REMARK  213  A    between atoms: _539  and  _540
REMARK  214  A    between atoms: _539  and  _542
REMARK  215  A    between atoms: _542  and  _543
REMARK                            x       y       z     vdW  Elec       q    Type
REMARK                         _______ _______ _______ _____ _____    ______ ____
ROOT
ATOM      1  O   HOH     1     -23.383  -0.407   0.096  0.00  0.00    +0.000 OA
ENDROOT
TORSDOF 0
REMARK  Name = ../refined-set-2016/2c92/2c92_pocket.pdb
REMARK  215 active torsions:
REMARK  status: ('A' for Active; 'I' for Inactive)
REMARK    1  A    between atoms: _1  and  _3
REMARK    2  A    between atoms: _3  and  _4
REMARK    3  A    between atoms: _7  and  _9
REMARK    4  A    between atoms: _9  and  _10
REMARK    5  A    between atoms: _9  and  _12
REMARK    6  A    between atoms: _12  and  _13
REMARK    7  A    between atoms: _15  and  _17
REMARK    8  A    between atoms: _17  and  _18
REMARK    9  A    between atoms: _17  and  _20
REMARK   10  A    between atoms: _20  and  _21
REMARK   11  A    between atoms: _23  and  _25
REMARK   12  A    between atoms: _25  and  _26
REMARK   13  A    between atoms: _25  and  _28
REMARK   14  A    between atoms: _28  and  _29
REMARK   15  A    between atoms: _39  and  _41
REMARK   16  A    between atoms: _41  and  _42
REMARK   17  A    between atoms: _41  and  _44
REMARK   18  A    between atoms: _44  and  _45
REMARK   19  A    between atoms: _50  and  _52
REMARK   20  A    between atoms: _52  and  _53
REMARK   21  A    between atoms: _52  and  _55
REMARK   22  A    between atoms: _57  and  _59
REMARK   23  A    between atoms: _59  and  _60
REMARK   24  A    between atoms: _59  and  _62
REMARK   25  A    between atoms: _65  and  _67
REMARK   26  A    between atoms: _67  and  _68
REMARK   27  A    between atoms: _67  and  _70
REMARK   28  A    between atoms: _70  and  _71
REMARK   29  A    between atoms: _74  and  _76
REMARK   30  A    between atoms: _76  and  _77
REMARK   31  A    between atoms: _79  and  _81
REMARK   32  A    between atoms: _81  and  _82
REMARK   33  A    between atoms: _85  and  _87
REMARK   34  A    between atoms: _87  and  _88
REMARK   35  A    between atoms: _87  and  _90
REMARK   36  A    between atoms: _90  and  _91
REMARK   37  A    between atoms: _94  and  _96
REMARK   38  A    between atoms: _96  and  _97
REMARK   39  A    between atoms: _96  and  _99
REMARK   40  A    between atoms: _99  and  _100
REMARK   41  A    between atoms: _100  and  _101
REMARK   42  A    between atoms: _104  and  _106
REMARK   43  A    between atoms: _106  and  _107
REMARK   44  A    between atoms: _106  and  _109
REMARK   45  A    between atoms: _109  and  _110
REMARK   46  A    between atoms: _113  and  _115
REMARK   47  A    between atoms: _115  and  _116
REMARK   48  A    between atoms: _115  and  _118
REMARK   49  A    between atoms: _118  and  _119
REMARK   50  A    between atoms: _122  and  _124
REMARK   51  A    between atoms: _124  and  _125
REMARK   52  A    between atoms: _127  and  _129
REMARK   53  A    between atoms: _129  and  _130
REMARK   54  A    between atoms: _129  and  _132
REMARK   55  A    between atoms: _135  and  _137
REMARK   56  A    between atoms: _137  and  _138
REMARK   57  A    between atoms: _137  and  _140
REMARK   58  A    between atoms: _143  and  _145
REMARK   59  A    between atoms: _145  and  _146
REMARK   60  A    between atoms: _145  and  _148
REMARK   61  A    between atoms: _148  and  _149
REMARK   62  A    between atoms: _152  and  _154
REMARK   63  A    between atoms: _154  and  _155
REMARK   64  A    between atoms: _154  and  _157
REMARK   65  A    between atoms: _157  and  _158
REMARK   66  A    between atoms: _158  and  _159
REMARK   67  A    between atoms: _159  and  _160
REMARK   68  A    between atoms: _169  and  _171
REMARK   69  A    between atoms: _171  and  _172
REMARK   70  A    between atoms: _174  and  _176
REMARK   71  A    between atoms: _176  and  _177
REMARK   72  A    between atoms: _176  and  _179
REMARK   73  A    between atoms: _179  and  _180
REMARK   74  A    between atoms: _180  and  _181
REMARK   75  A    between atoms: _186  and  _188
REMARK   76  A    between atoms: _188  and  _189
REMARK   77  A    between atoms: _188  and  _191
REMARK   78  A    between atoms: _191  and  _192
REMARK   79  A    between atoms: _196  and  _197
REMARK   80  A    between atoms: _202  and  _204
REMARK   81  A    between atoms: _204  and  _205
REMARK   82  A    between atoms: _204  and  _207
REMARK   83  A    between atoms: _207  and  _208
REMARK   84  A    between atoms: _213  and  _215
REMARK   85  A    between atoms: _215  and  _216
REMARK   86  A    between atoms: _215  and  _218
REMARK   87  A    between atoms: _218  and  _219
REMARK   88  A    between atoms: _225  and  _227
REMARK   89  A    between atoms: _227  and  _228
REMARK   90  A    between atoms: _227  and  _230
REMARK   91  A    between atoms: _230  and  _231
REMARK   92  A    between atoms: _234  and  _236
REMARK   93  A    between atoms: _236  and  _237
REMARK   94  A    between atoms: _236  and  _239
REMARK   95  A    between atoms: _239  and  _240
REMARK   96  A    between atoms: _245  and  _246
REMARK   97  A    between atoms: _248  and  _250
REMARK   98  A    between atoms: _250  and  _251
REMARK   99  A    between atoms: _250  and  _253
REMARK  100  A    between atoms: _256  and  _258
REMARK  101  A    between atoms: _258  and  _259
REMARK  102  A    between atoms: _258  and  _261
REMARK  103  A    between atoms: _263  and  _265
REMARK  104  A    between atoms: _265  and  _266
REMARK  105  A    between atoms: _269  and  _271
REMARK  106  A    between atoms: _271  and  _272
REMARK  107  A    between atoms: _271  and  _274
REMARK  108  A    between atoms: _277  and  _279
REMARK  109  A    between atoms: _279  and  _280
REMARK  110  A    between atoms: _279  and  _282
REMARK  111  A    between atoms: _285  and  _287
REMARK  112  A    between atoms: _287  and  _288
REMARK  113  A    between atoms: _287  and  _290
REMARK  114  A    between atoms: _290  and  _291
REMARK  115  A    between atoms: _294  and  _296
REMARK  116  A    between atoms: _296  and  _297
REMARK  117  A    between atoms: _296  and  _299
REMARK  118  A    between atoms: _299  and  _300
REMARK  119  A    between atoms: _303  and  _305
REMARK  120  A    between atoms: _305  and  _306
REMARK  121  A    between atoms: _305  and  _308
REMARK  122  A    between atoms: _311  and  _313
REMARK  123  A    between atoms: _313  and  _314
REMARK  124  A    between atoms: _313  and  _316
REMARK  125  A    between atoms: _319  and  _321
REMARK  126  A    between atoms: _321  and  _322
REMARK  127  A    between atoms: _325  and  _327
REMARK  128  A    between atoms: _327  and  _328
REMARK  129  A    between atoms: _327  and  _330
REMARK  130  A    between atoms: _330  and  _331
REMARK  131  A    between atoms: _335  and  _336
REMARK  132  A    between atoms: _341  and  _343
REMARK  133  A    between atoms: _343  and  _344
REMARK  134  A    between atoms: _343  and  _346
REMARK  135  A    between atoms: _346  and  _347
REMARK  136  A    between atoms: _350  and  _352
REMARK  137  A    between atoms: _352  and  _353
REMARK  138  A    between atoms: _356  and  _358
REMARK  139  A    between atoms: _358  and  _359
REMARK  140  A    between atoms: _358  and  _361
REMARK  141  A    between atoms: _361  and  _362
REMARK  142  A    between atoms: _367  and  _369
REMARK  143  A    between atoms: _369  and  _370
REMARK  144  A    between atoms: _372  and  _374
REMARK  145  A    between atoms: _374  and  _375
REMARK  146  A    between atoms: _374  and  _377
REMARK  147  A    between atoms: _380  and  _382
REMARK  148  A    between atoms: _382  and  _383
REMARK  149  A    between atoms: _382  and  _385
REMARK  150  A    between atoms: _385  and  _386
REMARK  151  A    between atoms: _389  and  _391
REMARK  152  A    between atoms: _391  and  _392
REMARK  153  A    between atoms: _391  and  _394
REMARK  154  A    between atoms: _394  and  _395
REMARK  155  A    between atoms: _398  and  _400
REMARK  156  A    between atoms: _400  and  _401
REMARK  157  A    between atoms: _400  and  _403
REMARK  158  A    between atoms: _403  and  _404
REMARK  159  A    between atoms: _407  and  _409
REMARK  160  A    between atoms: _409  and  _410
REMARK  161  A    between atoms: _409  and  _412
REMARK  162  A    between atoms: _412  and  _413
REMARK  163  A    between atoms: _418  and  _420
REMARK  164  A    between atoms: _420  and  _421
REMARK  165  A    between atoms: _420  and  _423
REMARK  166  A    between atoms: _423  and  _424
REMARK  167  A    between atoms: _424  and  _425
REMARK  168  A    between atoms: _430  and  _432
REMARK  169  A    between atoms: _432  and  _433
REMARK  170  A    between atoms: _432  and  _435
REMARK  171  A    between atoms: _435  and  _436
REMARK  172  A    between atoms: _439  and  _441
REMARK  173  A    between atoms: _441  and  _442
REMARK  174  A    between atoms: _441  and  _444
REMARK  175  A    between atoms: _444  and  _445
REMARK  176  A    between atoms: _445  and  _446
REMARK  177  A    between atoms: _446  and  _447
REMARK  178  A    between atoms: _456  and  _458
REMARK  179  A    between atoms: _458  and  _459
REMARK  180  A    between atoms: _458  and  _461
REMARK  181  A    between atoms: _461  and  _462
REMARK  182  A    between atoms: _462  and  _463
REMARK  183  A    between atoms: _466  and  _468
REMARK  184  A    between atoms: _468  and  _469
REMARK  185  A    between atoms: _468  and  _471
REMARK  186  A    between atoms: _471  and  _472
REMARK  187  A    between atoms: _472  and  _473
REMARK  188  A    between atoms: _473  and  _474
REMARK  189  A    between atoms: _474  and  _475
REMARK  190  A    between atoms: _479  and  _481
REMARK  191  A    between atoms: _481  and  _482
REMARK  192  A    between atoms: _484  and  _486
REMARK  193  A    between atoms: _486  and  _487
REMARK  194  A    between atoms: _490  and  _492
REMARK  195  A    between atoms: _492  and  _493
REMARK  196  A    between atoms: _492  and  _495
REMARK  197  A    between atoms: _495  and  _496
REMARK  198  A    between atoms: _496  and  _497
REMARK  199  A    between atoms: _502  and  _504
REMARK  200  A    between atoms: _504  and  _505
REMARK  201  A    between atoms: _508  and  _510
REMARK  202  A    between atoms: _510  and  _511
REMARK  203  A    between atoms: _510  and  _513
REMARK  204  A    between atoms: _513  and  _514
REMARK  205  A    between atoms: _517  and  _519
REMARK  206  A    between atoms: _519  and  _520
REMARK  207  A    between atoms: _519  and  _522
REMARK  208  A    between atoms: _525  and  _527
REMARK  209  A    between atoms: _527  and  _528
REMARK  210  A    between atoms: _531  and  _533
REMARK  211  A    between atoms: _533  and  _534
REMARK  212  A    between atoms: _537  and  _539
REMARK  213  A    between atoms: _539  and  _540
REMARK  214  A    between atoms: _539  and  _542
REMARK  215  A    between atoms: _542  and  _543
REMARK                            x       y       z     vdW  Elec       q    Type
REMARK                         _______ _______ _______ _____ _____    ______ ____
ROOT
ATOM      1  O   HOH     1     -33.634  -1.291  11.456  0.00  0.00    +0.000 OA
ENDROOT
TORSDOF 0
REMARK  Name = ../refined-set-2016/2c92/2c92_pocket.pdb
REMARK  215 active torsions:
REMARK  status: ('A' for Active; 'I' for Inactive)
REMARK    1  A    between atoms: _1  and  _3
REMARK    2  A    between atoms: _3  and  _4
REMARK    3  A    between atoms: _7  and  _9
REMARK    4  A    between atoms: _9  and  _10
REMARK    5  A    between atoms: _9  and  _12
REMARK    6  A    between atoms: _12  and  _13
REMARK    7  A    between atoms: _15  and  _17
REMARK    8  A    between atoms: _17  and  _18
REMARK    9  A    between atoms: _17  and  _20
REMARK   10  A    between atoms: _20  and  _21
REMARK   11  A    between atoms: _23  and  _25
REMARK   12  A    between atoms: _25  and  _26
REMARK   13  A    between atoms: _25  and  _28
REMARK   14  A    between atoms: _28  and  _29
REMARK   15  A    between atoms: _39  and  _41
REMARK   16  A    between atoms: _41  and  _42
REMARK   17  A    between atoms: _41  and  _44
REMARK   18  A    between atoms: _44  and  _45
REMARK   19  A    between atoms: _50  and  _52
REMARK   20  A    between atoms: _52  and  _53
REMARK   21  A    between atoms: _52  and  _55
REMARK   22  A    between atoms: _57  and  _59
REMARK   23  A    between atoms: _59  and  _60
REMARK   24  A    between atoms: _59  and  _62
REMARK   25  A    between atoms: _65  and  _67
REMARK   26  A    between atoms: _67  and  _68
REMARK   27  A    between atoms: _67  and  _70
REMARK   28  A    between atoms: _70  and  _71
REMARK   29  A    between atoms: _74  and  _76
REMARK   30  A    between atoms: _76  and  _77
REMARK   31  A    between atoms: _79  and  _81
REMARK   32  A    between atoms: _81  and  _82
REMARK   33  A    between atoms: _85  and  _87
REMARK   34  A    between atoms: _87  and  _88
REMARK   35  A    between atoms: _87  and  _90
REMARK   36  A    between atoms: _90  and  _91
REMARK   37  A    between atoms: _94  and  _96
REMARK   38  A    between atoms: _96  and  _97
REMARK   39  A    between atoms: _96  and  _99
REMARK   40  A    between atoms: _99  and  _100
REMARK   41  A    between atoms: _100  and  _101
REMARK   42  A    between atoms: _104  and  _106
REMARK   43  A    between atoms: _106  and  _107
REMARK   44  A    between atoms: _106  and  _109
REMARK   45  A    between atoms: _109  and  _110
REMARK   46  A    between atoms: _113  and  _115
REMARK   47  A    between atoms: _115  and  _116
REMARK   48  A    between atoms: _115  and  _118
REMARK   49  A    between atoms: _118  and  _119
REMARK   50  A    between atoms: _122  and  _124
REMARK   51  A    between atoms: _124  and  _125
REMARK   52  A    between atoms: _127  and  _129
REMARK   53  A    between atoms: _129  and  _130
REMARK   54  A    between atoms: _129  and  _132
REMARK   55  A    between atoms: _135  and  _137
REMARK   56  A    between atoms: _137  and  _138
REMARK   57  A    between atoms: _137  and  _140
REMARK   58  A    between atoms: _143  and  _145
REMARK   59  A    between atoms: _145  and  _146
REMARK   60  A    between atoms: _145  and  _148
REMARK   61  A    between atoms: _148  and  _149
REMARK   62  A    between atoms: _152  and  _154
REMARK   63  A    between atoms: _154  and  _155
REMARK   64  A    between atoms: _154  and  _157
REMARK   65  A    between atoms: _157  and  _158
REMARK   66  A    between atoms: _158  and  _159
REMARK   67  A    between atoms: _159  and  _160
REMARK   68  A    between atoms: _169  and  _171
REMARK   69  A    between atoms: _171  and  _172
REMARK   70  A    between atoms: _174  and  _176
REMARK   71  A    between atoms: _176  and  _177
REMARK   72  A    between atoms: _176  and  _179
REMARK   73  A    between atoms: _179  and  _180
REMARK   74  A    between atoms: _180  and  _181
REMARK   75  A    between atoms: _186  and  _188
REMARK   76  A    between atoms: _188  and  _189
REMARK   77  A    between atoms: _188  and  _191
REMARK   78  A    between atoms: _191  and  _192
REMARK   79  A    between atoms: _196  and  _197
REMARK   80  A    between atoms: _202  and  _204
REMARK   81  A    between atoms: _204  and  _205
REMARK   82  A    between atoms: _204  and  _207
REMARK   83  A    between atoms: _207  and  _208
REMARK   84  A    between atoms: _213  and  _215
REMARK   85  A    between atoms: _215  and  _216
REMARK   86  A    between atoms: _215  and  _218
REMARK   87  A    between atoms: _218  and  _219
REMARK   88  A    between atoms: _225  and  _227
REMARK   89  A    between atoms: _227  and  _228
REMARK   90  A    between atoms: _227  and  _230
REMARK   91  A    between atoms: _230  and  _231
REMARK   92  A    between atoms: _234  and  _236
REMARK   93  A    between atoms: _236  and  _237
REMARK   94  A    between atoms: _236  and  _239
REMARK   95  A    between atoms: _239  and  _240
REMARK   96  A    between atoms: _245  and  _246
REMARK   97  A    between atoms: _248  and  _250
REMARK   98  A    between atoms: _250  and  _251
REMARK   99  A    between atoms: _250  and  _253
REMARK  100  A    between atoms: _256  and  _258
REMARK  101  A    between atoms: _258  and  _259
REMARK  102  A    between atoms: _258  and  _261
REMARK  103  A    between atoms: _263  and  _265
REMARK  104  A    between atoms: _265  and  _266
REMARK  105  A    between atoms: _269  and  _271
REMARK  106  A    between atoms: _271  and  _272
REMARK  107  A    between atoms: _271  and  _274
REMARK  108  A    between atoms: _277  and  _279
REMARK  109  A    between atoms: _279  and  _280
REMARK  110  A    between atoms: _279  and  _282
REMARK  111  A    between atoms: _285  and  _287
REMARK  112  A    between atoms: _287  and  _288
REMARK  113  A    between atoms: _287  and  _290
REMARK  114  A    between atoms: _290  and  _291
REMARK  115  A    between atoms: _294  and  _296
REMARK  116  A    between atoms: _296  and  _297
REMARK  117  A    between atoms: _296  and  _299
REMARK  118  A    between atoms: _299  and  _300
REMARK  119  A    between atoms: _303  and  _305
REMARK  120  A    between atoms: _305  and  _306
REMARK  121  A    between atoms: _305  and  _308
REMARK  122  A    between atoms: _311  and  _313
REMARK  123  A    between atoms: _313  and  _314
REMARK  124  A    between atoms: _313  and  _316
REMARK  125  A    between atoms: _319  and  _321
REMARK  126  A    between atoms: _321  and  _322
REMARK  127  A    between atoms: _325  and  _327
REMARK  128  A    between atoms: _327  and  _328
REMARK  129  A    between atoms: _327  and  _330
REMARK  130  A    between atoms: _330  and  _331
REMARK  131  A    between atoms: _335  and  _336
REMARK  132  A    between atoms: _341  and  _343
REMARK  133  A    between atoms: _343  and  _344
REMARK  134  A    between atoms: _343  and  _346
REMARK  135  A    between atoms: _346  and  _347
REMARK  136  A    between atoms: _350  and  _352
REMARK  137  A    between atoms: _352  and  _353
REMARK  138  A    between atoms: _356  and  _358
REMARK  139  A    between atoms: _358  and  _359
REMARK  140  A    between atoms: _358  and  _361
REMARK  141  A    between atoms: _361  and  _362
REMARK  142  A    between atoms: _367  and  _369
REMARK  143  A    between atoms: _369  and  _370
REMARK  144  A    between atoms: _372  and  _374
REMARK  145  A    between atoms: _374  and  _375
REMARK  146  A    between atoms: _374  and  _377
REMARK  147  A    between atoms: _380  and  _382
REMARK  148  A    between atoms: _382  and  _383
REMARK  149  A    between atoms: _382  and  _385
REMARK  150  A    between atoms: _385  and  _386
REMARK  151  A    between atoms: _389  and  _391
REMARK  152  A    between atoms: _391  and  _392
REMARK  153  A    between atoms: _391  and  _394
REMARK  154  A    between atoms: _394  and  _395
REMARK  155  A    between atoms: _398  and  _400
REMARK  156  A    between atoms: _400  and  _401
REMARK  157  A    between atoms: _400  and  _403
REMARK  158  A    between atoms: _403  and  _404
REMARK  159  A    between atoms: _407  and  _409
REMARK  160  A    between atoms: _409  and  _410
REMARK  161  A    between atoms: _409  and  _412
REMARK  162  A    between atoms: _412  and  _413
REMARK  163  A    between atoms: _418  and  _420
REMARK  164  A    between atoms: _420  and  _421
REMARK  165  A    between atoms: _420  and  _423
REMARK  166  A    between atoms: _423  and  _424
REMARK  167  A    between atoms: _424  and  _425
REMARK  168  A    between atoms: _430  and  _432
REMARK  169  A    between atoms: _432  and  _433
REMARK  170  A    between atoms: _432  and  _435
REMARK  171  A    between atoms: _435  and  _436
REMARK  172  A    between atoms: _439  and  _441
REMARK  173  A    between atoms: _441  and  _442
REMARK  174  A    between atoms: _441  and  _444
REMARK  175  A    between atoms: _444  and  _445
REMARK  176  A    between atoms: _445  and  _446
REMARK  177  A    between atoms: _446  and  _447
REMARK  178  A    between atoms: _456  and  _458
REMARK  179  A    between atoms: _458  and  _459
REMARK  180  A    between atoms: _458  and  _461
REMARK  181  A    between atoms: _461  and  _462
REMARK  182  A    between atoms: _462  and  _463
REMARK  183  A    between atoms: _466  and  _468
REMARK  184  A    between atoms: _468  and  _469
REMARK  185  A    between atoms: _468  and  _471
REMARK  186  A    between atoms: _471  and  _472
REMARK  187  A    between atoms: _472  and  _473
REMARK  188  A    between atoms: _473  and  _474
REMARK  189  A    between atoms: _474  and  _475
REMARK  190  A    between atoms: _479  and  _481
REMARK  191  A    between atoms: _481  and  _482
REMARK  192  A    between atoms: _484  and  _486
REMARK  193  A    between atoms: _486  and  _487
REMARK  194  A    between atoms: _490  and  _492
REMARK  195  A    between atoms: _492  and  _493
REMARK  196  A    between atoms: _492  and  _495
REMARK  197  A    between atoms: _495  and  _496
REMARK  198  A    between atoms: _496  and  _497
REMARK  199  A    between atoms: _502  and  _504
REMARK  200  A    between atoms: _504  and  _505
REMARK  201  A    between atoms: _508  and  _510
REMARK  202  A    between atoms: _510  and  _511
REMARK  203  A    between atoms: _510  and  _513
REMARK  204  A    between atoms: _513  and  _514
REMARK  205  A    between atoms: _517  and  _519
REMARK  206  A    between atoms: _519  and  _520
REMARK  207  A    between atoms: _519  and  _522
REMARK  208  A    between atoms: _525  and  _527
REMARK  209  A    between atoms: _527  and  _528
REMARK  210  A    between atoms: _531  and  _533
REMARK  211  A    between atoms: _533  and  _534
REMARK  212  A    between atoms: _537  and  _539
REMARK  213  A    between atoms: _539  and  _540
REMARK  214  A    between atoms: _539  and  _542
REMARK  215  A    between atoms: _542  and  _543
REMARK                            x       y       z     vdW  Elec       q    Type
REMARK                         _______ _______ _______ _____ _____    ______ ____
ROOT
ATOM      1  O   HOH     1     -26.828  -0.745  17.564  0.00  0.00    +0.000 OA
ENDROOT
TORSDOF 0
REMARK  Name = ../refined-set-2016/2c92/2c92_pocket.pdb
REMARK  215 active torsions:
REMARK  status: ('A' for Active; 'I' for Inactive)
REMARK    1  A    between atoms: _1  and  _3
REMARK    2  A    between atoms: _3  and  _4
REMARK    3  A    between atoms: _7  and  _9
REMARK    4  A    between atoms: _9  and  _10
REMARK    5  A    between atoms: _9  and  _12
REMARK    6  A    between atoms: _12  and  _13
REMARK    7  A    between atoms: _15  and  _17
REMARK    8  A    between atoms: _17  and  _18
REMARK    9  A    between atoms: _17  and  _20
REMARK   10  A    between atoms: _20  and  _21
REMARK   11  A    between atoms: _23  and  _25
REMARK   12  A    between atoms: _25  and  _26
REMARK   13  A    between atoms: _25  and  _28
REMARK   14  A    between atoms: _28  and  _29
REMARK   15  A    between atoms: _39  and  _41
REMARK   16  A    between atoms: _41  and  _42
REMARK   17  A    between atoms: _41  and  _44
REMARK   18  A    between atoms: _44  and  _45
REMARK   19  A    between atoms: _50  and  _52
REMARK   20  A    between atoms: _52  and  _53
REMARK   21  A    between atoms: _52  and  _55
REMARK   22  A    between atoms: _57  and  _59
REMARK   23  A    between atoms: _59  and  _60
REMARK   24  A    between atoms: _59  and  _62
REMARK   25  A    between atoms: _65  and  _67
REMARK   26  A    between atoms: _67  and  _68
REMARK   27  A    between atoms: _67  and  _70
REMARK   28  A    between atoms: _70  and  _71
REMARK   29  A    between atoms: _74  and  _76
REMARK   30  A    between atoms: _76  and  _77
REMARK   31  A    between atoms: _79  and  _81
REMARK   32  A    between atoms: _81  and  _82
REMARK   33  A    between atoms: _85  and  _87
REMARK   34  A    between atoms: _87  and  _88
REMARK   35  A    between atoms: _87  and  _90
REMARK   36  A    between atoms: _90  and  _91
REMARK   37  A    between atoms: _94  and  _96
REMARK   38  A    between atoms: _96  and  _97
REMARK   39  A    between atoms: _96  and  _99
REMARK   40  A    between atoms: _99  and  _100
REMARK   41  A    between atoms: _100  and  _101
REMARK   42  A    between atoms: _104  and  _106
REMARK   43  A    between atoms: _106  and  _107
REMARK   44  A    between atoms: _106  and  _109
REMARK   45  A    between atoms: _109  and  _110
REMARK   46  A    between atoms: _113  and  _115
REMARK   47  A    between atoms: _115  and  _116
REMARK   48  A    between atoms: _115  and  _118
REMARK   49  A    between atoms: _118  and  _119
REMARK   50  A    between atoms: _122  and  _124
REMARK   51  A    between atoms: _124  and  _125
REMARK   52  A    between atoms: _127  and  _129
REMARK   53  A    between atoms: _129  and  _130
REMARK   54  A    between atoms: _129  and  _132
REMARK   55  A    between atoms: _135  and  _137
REMARK   56  A    between atoms: _137  and  _138
REMARK   57  A    between atoms: _137  and  _140
REMARK   58  A    between atoms: _143  and  _145
REMARK   59  A    between atoms: _145  and  _146
REMARK   60  A    between atoms: _145  and  _148
REMARK   61  A    between atoms: _148  and  _149
REMARK   62  A    between atoms: _152  and  _154
REMARK   63  A    between atoms: _154  and  _155
REMARK   64  A    between atoms: _154  and  _157
REMARK   65  A    between atoms: _157  and  _158
REMARK   66  A    between atoms: _158  and  _159
REMARK   67  A    between atoms: _159  and  _160
REMARK   68  A    between atoms: _169  and  _171
REMARK   69  A    between atoms: _171  and  _172
REMARK   70  A    between atoms: _174  and  _176
REMARK   71  A    between atoms: _176  and  _177
REMARK   72  A    between atoms: _176  and  _179
REMARK   73  A    between atoms: _179  and  _180
REMARK   74  A    between atoms: _180  and  _181
REMARK   75  A    between atoms: _186  and  _188
REMARK   76  A    between atoms: _188  and  _189
REMARK   77  A    between atoms: _188  and  _191
REMARK   78  A    between atoms: _191  and  _192
REMARK   79  A    between atoms: _196  and  _197
REMARK   80  A    between atoms: _202  and  _204
REMARK   81  A    between atoms: _204  and  _205
REMARK   82  A    between atoms: _204  and  _207
REMARK   83  A    between atoms: _207  and  _208
REMARK   84  A    between atoms: _213  and  _215
REMARK   85  A    between atoms: _215  and  _216
REMARK   86  A    between atoms: _215  and  _218
REMARK   87  A    between atoms: _218  and  _219
REMARK   88  A    between atoms: _225  and  _227
REMARK   89  A    between atoms: _227  and  _228
REMARK   90  A    between atoms: _227  and  _230
REMARK   91  A    between atoms: _230  and  _231
REMARK   92  A    between atoms: _234  and  _236
REMARK   93  A    between atoms: _236  and  _237
REMARK   94  A    between atoms: _236  and  _239
REMARK   95  A    between atoms: _239  and  _240
REMARK   96  A    between atoms: _245  and  _246
REMARK   97  A    between atoms: _248  and  _250
REMARK   98  A    between atoms: _250  and  _251
REMARK   99  A    between atoms: _250  and  _253
REMARK  100  A    between atoms: _256  and  _258
REMARK  101  A    between atoms: _258  and  _259
REMARK  102  A    between atoms: _258  and  _261
REMARK  103  A    between atoms: _263  and  _265
REMARK  104  A    between atoms: _265  and  _266
REMARK  105  A    between atoms: _269  and  _271
REMARK  106  A    between atoms: _271  and  _272
REMARK  107  A    between atoms: _271  and  _274
REMARK  108  A    between atoms: _277  and  _279
REMARK  109  A    between atoms: _279  and  _280
REMARK  110  A    between atoms: _279  and  _282
REMARK  111  A    between atoms: _285  and  _287
REMARK  112  A    between atoms: _287  and  _288
REMARK  113  A    between atoms: _287  and  _290
REMARK  114  A    between atoms: _290  and  _291
REMARK  115  A    between atoms: _294  and  _296
REMARK  116  A    between atoms: _296  and  _297
REMARK  117  A    between atoms: _296  and  _299
REMARK  118  A    between atoms: _299  and  _300
REMARK  119  A    between atoms: _303  and  _305
REMARK  120  A    between atoms: _305  and  _306
REMARK  121  A    between atoms: _305  and  _308
REMARK  122  A    between atoms: _311  and  _313
REMARK  123  A    between atoms: _313  and  _314
REMARK  124  A    between atoms: _313  and  _316
REMARK  125  A    between atoms: _319  and  _321
REMARK  126  A    between atoms: _321  and  _322
REMARK  127  A    between atoms: _325  and  _327
REMARK  128  A    between atoms: _327  and  _328
REMARK  129  A    between atoms: _327  and  _330
REMARK  130  A    between atoms: _330  and  _331
REMARK  131  A    between atoms: _335  and  _336
REMARK  132  A    between atoms: _341  and  _343
REMARK  133  A    between atoms: _343  and  _344
REMARK  134  A    between atoms: _343  and  _346
REMARK  135  A    between atoms: _346  and  _347
REMARK  136  A    between atoms: _350  and  _352
REMARK  137  A    between atoms: _352  and  _353
REMARK  138  A    between atoms: _356  and  _358
REMARK  139  A    between atoms: _358  and  _359
REMARK  140  A    between atoms: _358  and  _361
REMARK  141  A    between atoms: _361  and  _362
REMARK  142  A    between atoms: _367  and  _369
REMARK  143  A    between atoms: _369  and  _370
REMARK  144  A    between atoms: _372  and  _374
REMARK  145  A    between atoms: _374  and  _375
REMARK  146  A    between atoms: _374  and  _377
REMARK  147  A    between atoms: _380  and  _382
REMARK  148  A    between atoms: _382  and  _383
REMARK  149  A    between atoms: _382  and  _385
REMARK  150  A    between atoms: _385  and  _386
REMARK  151  A    between atoms: _389  and  _391
REMARK  152  A    between atoms: _391  and  _392
REMARK  153  A    between atoms: _391  and  _394
REMARK  154  A    between atoms: _394  and  _395
REMARK  155  A    between atoms: _398  and  _400
REMARK  156  A    between atoms: _400  and  _401
REMARK  157  A    between atoms: _400  and  _403
REMARK  158  A    between atoms: _403  and  _404
REMARK  159  A    between atoms: _407  and  _409
REMARK  160  A    between atoms: _409  and  _410
REMARK  161  A    between atoms: _409  and  _412
REMARK  162  A    between atoms: _412  and  _413
REMARK  163  A    between atoms: _418  and  _420
REMARK  164  A    between atoms: _420  and  _421
REMARK  165  A    between atoms: _420  and  _423
REMARK  166  A    between atoms: _423  and  _424
REMARK  167  A    between atoms: _424  and  _425
REMARK  168  A    between atoms: _430  and  _432
REMARK  169  A    between atoms: _432  and  _433
REMARK  170  A    between atoms: _432  and  _435
REMARK  171  A    between atoms: _435  and  _436
REMARK  172  A    between atoms: _439  and  _441
REMARK  173  A    between atoms: _441  and  _442
REMARK  174  A    between atoms: _441  and  _444
REMARK  175  A    between atoms: _444  and  _445
REMARK  176  A    between atoms: _445  and  _446
REMARK  177  A    between atoms: _446  and  _447
REMARK  178  A    between atoms: _456  and  _458
REMARK  179  A    between atoms: _458  and  _459
REMARK  180  A    between atoms: _458  and  _461
REMARK  181  A    between atoms: _461  and  _462
REMARK  182  A    between atoms: _462  and  _463
REMARK  183  A    between atoms: _466  and  _468
REMARK  184  A    between atoms: _468  and  _469
REMARK  185  A    between atoms: _468  and  _471
REMARK  186  A    between atoms: _471  and  _472
REMARK  187  A    between atoms: _472  and  _473
REMARK  188  A    between atoms: _473  and  _474
REMARK  189  A    between atoms: _474  and  _475
REMARK  190  A    between atoms: _479  and  _481
REMARK  191  A    between atoms: _481  and  _482
REMARK  192  A    between atoms: _484  and  _486
REMARK  193  A    between atoms: _486  and  _487
REMARK  194  A    between atoms: _490  and  _492
REMARK  195  A    between atoms: _492  and  _493
REMARK  196  A    between atoms: _492  and  _495
REMARK  197  A    between atoms: _495  and  _496
REMARK  198  A    between atoms: _496  and  _497
REMARK  199  A    between atoms: _502  and  _504
REMARK  200  A    between atoms: _504  and  _505
REMARK  201  A    between atoms: _508  and  _510
REMARK  202  A    between atoms: _510  and  _511
REMARK  203  A    between atoms: _510  and  _513
REMARK  204  A    between atoms: _513  and  _514
REMARK  205  A    between atoms: _517  and  _519
REMARK  206  A    between atoms: _519  and  _520
REMARK  207  A    between atoms: _519  and  _522
REMARK  208  A    between atoms: _525  and  _527
REMARK  209  A    between atoms: _527  and  _528
REMARK  210  A    between atoms: _531  and  _533
REMARK  211  A    between atoms: _533  and  _534
REMARK  212  A    between atoms: _537  and  _539
REMARK  213  A    between atoms: _539  and  _540
REMARK  214  A    between atoms: _539  and  _542
REMARK  215  A    between atoms: _542  and  _543
REMARK                            x       y       z     vdW  Elec       q    Type
REMARK                         _______ _______ _______ _____ _____    ______ ____
ROOT
ATOM      1  O   HOH     1     -23.326  -0.302  16.484  0.00  0.00    +0.000 OA
ENDROOT
TORSDOF 0
REMARK  Name = ../refined-set-2016/2c92/2c92_pocket.pdb
REMARK  215 active torsions:
REMARK  status: ('A' for Active; 'I' for Inactive)
REMARK    1  A    between atoms: _1  and  _3
REMARK    2  A    between atoms: _3  and  _4
REMARK    3  A    between atoms: _7  and  _9
REMARK    4  A    between atoms: _9  and  _10
REMARK    5  A    between atoms: _9  and  _12
REMARK    6  A    between atoms: _12  and  _13
REMARK    7  A    between atoms: _15  and  _17
REMARK    8  A    between atoms: _17  and  _18
REMARK    9  A    between atoms: _17  and  _20
REMARK   10  A    between atoms: _20  and  _21
REMARK   11  A    between atoms: _23  and  _25
REMARK   12  A    between atoms: _25  and  _26
REMARK   13  A    between atoms: _25  and  _28
REMARK   14  A    between atoms: _28  and  _29
REMARK   15  A    between atoms: _39  and  _41
REMARK   16  A    between atoms: _41  and  _42
REMARK   17  A    between atoms: _41  and  _44
REMARK   18  A    between atoms: _44  and  _45
REMARK   19  A    between atoms: _50  and  _52
REMARK   20  A    between atoms: _52  and  _53
REMARK   21  A    between atoms: _52  and  _55
REMARK   22  A    between atoms: _57  and  _59
REMARK   23  A    between atoms: _59  and  _60
REMARK   24  A    between atoms: _59  and  _62
REMARK   25  A    between atoms: _65  and  _67
REMARK   26  A    between atoms: _67  and  _68
REMARK   27  A    between atoms: _67  and  _70
REMARK   28  A    between atoms: _70  and  _71
REMARK   29  A    between atoms: _74  and  _76
REMARK   30  A    between atoms: _76  and  _77
REMARK   31  A    between atoms: _79  and  _81
REMARK   32  A    between atoms: _81  and  _82
REMARK   33  A    between atoms: _85  and  _87
REMARK   34  A    between atoms: _87  and  _88
REMARK   35  A    between atoms: _87  and  _90
REMARK   36  A    between atoms: _90  and  _91
REMARK   37  A    between atoms: _94  and  _96
REMARK   38  A    between atoms: _96  and  _97
REMARK   39  A    between atoms: _96  and  _99
REMARK   40  A    between atoms: _99  and  _100
REMARK   41  A    between atoms: _100  and  _101
REMARK   42  A    between atoms: _104  and  _106
REMARK   43  A    between atoms: _106  and  _107
REMARK   44  A    between atoms: _106  and  _109
REMARK   45  A    between atoms: _109  and  _110
REMARK   46  A    between atoms: _113  and  _115
REMARK   47  A    between atoms: _115  and  _116
REMARK   48  A    between atoms: _115  and  _118
REMARK   49  A    between atoms: _118  and  _119
REMARK   50  A    between atoms: _122  and  _124
REMARK   51  A    between atoms: _124  and  _125
REMARK   52  A    between atoms: _127  and  _129
REMARK   53  A    between atoms: _129  and  _130
REMARK   54  A    between atoms: _129  and  _132
REMARK   55  A    between atoms: _135  and  _137
REMARK   56  A    between atoms: _137  and  _138
REMARK   57  A    between atoms: _137  and  _140
REMARK   58  A    between atoms: _143  and  _145
REMARK   59  A    between atoms: _145  and  _146
REMARK   60  A    between atoms: _145  and  _148
REMARK   61  A    between atoms: _148  and  _149
REMARK   62  A    between atoms: _152  and  _154
REMARK   63  A    between atoms: _154  and  _155
REMARK   64  A    between atoms: _154  and  _157
REMARK   65  A    between atoms: _157  and  _158
REMARK   66  A    between atoms: _158  and  _159
REMARK   67  A    between atoms: _159  and  _160
REMARK   68  A    between atoms: _169  and  _171
REMARK   69  A    between atoms: _171  and  _172
REMARK   70  A    between atoms: _174  and  _176
REMARK   71  A    between atoms: _176  and  _177
REMARK   72  A    between atoms: _176  and  _179
REMARK   73  A    between atoms: _179  and  _180
REMARK   74  A    between atoms: _180  and  _181
REMARK   75  A    between atoms: _186  and  _188
REMARK   76  A    between atoms: _188  and  _189
REMARK   77  A    between atoms: _188  and  _191
REMARK   78  A    between atoms: _191  and  _192
REMARK   79  A    between atoms: _196  and  _197
REMARK   80  A    between atoms: _202  and  _204
REMARK   81  A    between atoms: _204  and  _205
REMARK   82  A    between atoms: _204  and  _207
REMARK   83  A    between atoms: _207  and  _208
REMARK   84  A    between atoms: _213  and  _215
REMARK   85  A    between atoms: _215  and  _216
REMARK   86  A    between atoms: _215  and  _218
REMARK   87  A    between atoms: _218  and  _219
REMARK   88  A    between atoms: _225  and  _227
REMARK   89  A    between atoms: _227  and  _228
REMARK   90  A    between atoms: _227  and  _230
REMARK   91  A    between atoms: _230  and  _231
REMARK   92  A    between atoms: _234  and  _236
REMARK   93  A    between atoms: _236  and  _237
REMARK   94  A    between atoms: _236  and  _239
REMARK   95  A    between atoms: _239  and  _240
REMARK   96  A    between atoms: _245  and  _246
REMARK   97  A    between atoms: _248  and  _250
REMARK   98  A    between atoms: _250  and  _251
REMARK   99  A    between atoms: _250  and  _253
REMARK  100  A    between atoms: _256  and  _258
REMARK  101  A    between atoms: _258  and  _259
REMARK  102  A    between atoms: _258  and  _261
REMARK  103  A    between atoms: _263  and  _265
REMARK  104  A    between atoms: _265  and  _266
REMARK  105  A    between atoms: _269  and  _271
REMARK  106  A    between atoms: _271  and  _272
REMARK  107  A    between atoms: _271  and  _274
REMARK  108  A    between atoms: _277  and  _279
REMARK  109  A    between atoms: _279  and  _280
REMARK  110  A    between atoms: _279  and  _282
REMARK  111  A    between atoms: _285  and  _287
REMARK  112  A    between atoms: _287  and  _288
REMARK  113  A    between atoms: _287  and  _290
REMARK  114  A    between atoms: _290  and  _291
REMARK  115  A    between atoms: _294  and  _296
REMARK  116  A    between atoms: _296  and  _297
REMARK  117  A    between atoms: _296  and  _299
REMARK  118  A    between atoms: _299  and  _300
REMARK  119  A    between atoms: _303  and  _305
REMARK  120  A    between atoms: _305  and  _306
REMARK  121  A    between atoms: _305  and  _308
REMARK  122  A    between atoms: _311  and  _313
REMARK  123  A    between atoms: _313  and  _314
REMARK  124  A    between atoms: _313  and  _316
REMARK  125  A    between atoms: _319  and  _321
REMARK  126  A    between atoms: _321  and  _322
REMARK  127  A    between atoms: _325  and  _327
REMARK  128  A    between atoms: _327  and  _328
REMARK  129  A    between atoms: _327  and  _330
REMARK  130  A    between atoms: _330  and  _331
REMARK  131  A    between atoms: _335  and  _336
REMARK  132  A    between atoms: _341  and  _343
REMARK  133  A    between atoms: _343  and  _344
REMARK  134  A    between atoms: _343  and  _346
REMARK  135  A    between atoms: _346  and  _347
REMARK  136  A    between atoms: _350  and  _352
REMARK  137  A    between atoms: _352  and  _353
REMARK  138  A    between atoms: _356  and  _358
REMARK  139  A    between atoms: _358  and  _359
REMARK  140  A    between atoms: _358  and  _361
REMARK  141  A    between atoms: _361  and  _362
REMARK  142  A    between atoms: _367  and  _369
REMARK  143  A    between atoms: _369  and  _370
REMARK  144  A    between atoms: _372  and  _374
REMARK  145  A    between atoms: _374  and  _375
REMARK  146  A    between atoms: _374  and  _377
REMARK  147  A    between atoms: _380  and  _382
REMARK  148  A    between atoms: _382  and  _383
REMARK  149  A    between atoms: _382  and  _385
REMARK  150  A    between atoms: _385  and  _386
REMARK  151  A    between atoms: _389  and  _391
REMARK  152  A    between atoms: _391  and  _392
REMARK  153  A    between atoms: _391  and  _394
REMARK  154  A    between atoms: _394  and  _395
REMARK  155  A    between atoms: _398  and  _400
REMARK  156  A    between atoms: _400  and  _401
REMARK  157  A    between atoms: _400  and  _403
REMARK  158  A    between atoms: _403  and  _404
REMARK  159  A    between atoms: _407  and  _409
REMARK  160  A    between atoms: _409  and  _410
REMARK  161  A    between atoms: _409  and  _412
REMARK  162  A    between atoms: _412  and  _413
REMARK  163  A    between atoms: _418  and  _420
REMARK  164  A    between atoms: _420  and  _421
REMARK  165  A    between atoms: _420  and  _423
REMARK  166  A    between atoms: _423  and  _424
REMARK  167  A    between atoms: _424  and  _425
REMARK  168  A    between atoms: _430  and  _432
REMARK  169  A    between atoms: _432  and  _433
REMARK  170  A    between atoms: _432  and  _435
REMARK  171  A    between atoms: _435  and  _436
REMARK  172  A    between atoms: _439  and  _441
REMARK  173  A    between atoms: _441  and  _442
REMARK  174  A    between atoms: _441  and  _444
REMARK  175  A    between atoms: _444  and  _445
REMARK  176  A    between atoms: _445  and  _446
REMARK  177  A    between atoms: _446  and  _447
REMARK  178  A    between atoms: _456  and  _458
REMARK  179  A    between atoms: _458  and  _459
REMARK  180  A    between atoms: _458  and  _461
REMARK  181  A    between atoms: _461  and  _462
REMARK  182  A    between atoms: _462  and  _463
REMARK  183  A    between atoms: _466  and  _468
REMARK  184  A    between atoms: _468  and  _469
REMARK  185  A    between atoms: _468  and  _471
REMARK  186  A    between atoms: _471  and  _472
REMARK  187  A    between atoms: _472  and  _473
REMARK  188  A    between atoms: _473  and  _474
REMARK  189  A    between atoms: _474  and  _475
REMARK  190  A    between atoms: _479  and  _481
REMARK  191  A    between atoms: _481  and  _482
REMARK  192  A    between atoms: _484  and  _486
REMARK  193  A    between atoms: _486  and  _487
REMARK  194  A    between atoms: _490  and  _492
REMARK  195  A    between atoms: _492  and  _493
REMARK  196  A    between atoms: _492  and  _495
REMARK  197  A    between atoms: _495  and  _496
REMARK  198  A    between atoms: _496  and  _497
REMARK  199  A    between atoms: _502  and  _504
REMARK  200  A    between atoms: _504  and  _505
REMARK  201  A    between atoms: _508  and  _510
REMARK  202  A    between atoms: _510  and  _511
REMARK  203  A    between atoms: _510  and  _513
REMARK  204  A    between atoms: _513  and  _514
REMARK  205  A    between atoms: _517  and  _519
REMARK  206  A    between atoms: _519  and  _520
REMARK  207  A    between atoms: _519  and  _522
REMARK  208  A    between atoms: _525  and  _527
REMARK  209  A    between atoms: _527  and  _528
REMARK  210  A    between atoms: _531  and  _533
REMARK  211  A    between atoms: _533  and  _534
REMARK  212  A    between atoms: _537  and  _539
REMARK  213  A    between atoms: _539  and  _540
REMARK  214  A    between atoms: _539  and  _542
REMARK  215  A    between atoms: _542  and  _543
REMARK                            x       y       z     vdW  Elec       q    Type
REMARK                         _______ _______ _______ _____ _____    ______ ____
ROOT
ATOM      1  O   HOH     1     -28.605   2.677  14.841  0.00  0.00    +0.000 OA
ENDROOT
TORSDOF 0
REMARK  Name = ../refined-set-2016/2c92/2c92_pocket.pdb
REMARK  215 active torsions:
REMARK  status: ('A' for Active; 'I' for Inactive)
REMARK    1  A    between atoms: _1  and  _3
REMARK    2  A    between atoms: _3  and  _4
REMARK    3  A    between atoms: _7  and  _9
REMARK    4  A    between atoms: _9  and  _10
REMARK    5  A    between atoms: _9  and  _12
REMARK    6  A    between atoms: _12  and  _13
REMARK    7  A    between atoms: _15  and  _17
REMARK    8  A    between atoms: _17  and  _18
REMARK    9  A    between atoms: _17  and  _20
REMARK   10  A    between atoms: _20  and  _21
REMARK   11  A    between atoms: _23  and  _25
REMARK   12  A    between atoms: _25  and  _26
REMARK   13  A    between atoms: _25  and  _28
REMARK   14  A    between atoms: _28  and  _29
REMARK   15  A    between atoms: _39  and  _41
REMARK   16  A    between atoms: _41  and  _42
REMARK   17  A    between atoms: _41  and  _44
REMARK   18  A    between atoms: _44  and  _45
REMARK   19  A    between atoms: _50  and  _52
REMARK   20  A    between atoms: _52  and  _53
REMARK   21  A    between atoms: _52  and  _55
REMARK   22  A    between atoms: _57  and  _59
REMARK   23  A    between atoms: _59  and  _60
REMARK   24  A    between atoms: _59  and  _62
REMARK   25  A    between atoms: _65  and  _67
REMARK   26  A    between atoms: _67  and  _68
REMARK   27  A    between atoms: _67  and  _70
REMARK   28  A    between atoms: _70  and  _71
REMARK   29  A    between atoms: _74  and  _76
REMARK   30  A    between atoms: _76  and  _77
REMARK   31  A    between atoms: _79  and  _81
REMARK   32  A    between atoms: _81  and  _82
REMARK   33  A    between atoms: _85  and  _87
REMARK   34  A    between atoms: _87  and  _88
REMARK   35  A    between atoms: _87  and  _90
REMARK   36  A    between atoms: _90  and  _91
REMARK   37  A    between atoms: _94  and  _96
REMARK   38  A    between atoms: _96  and  _97
REMARK   39  A    between atoms: _96  and  _99
REMARK   40  A    between atoms: _99  and  _100
REMARK   41  A    between atoms: _100  and  _101
REMARK   42  A    between atoms: _104  and  _106
REMARK   43  A    between atoms: _106  and  _107
REMARK   44  A    between atoms: _106  and  _109
REMARK   45  A    between atoms: _109  and  _110
REMARK   46  A    between atoms: _113  and  _115
REMARK   47  A    between atoms: _115  and  _116
REMARK   48  A    between atoms: _115  and  _118
REMARK   49  A    between atoms: _118  and  _119
REMARK   50  A    between atoms: _122  and  _124
REMARK   51  A    between atoms: _124  and  _125
REMARK   52  A    between atoms: _127  and  _129
REMARK   53  A    between atoms: _129  and  _130
REMARK   54  A    between atoms: _129  and  _132
REMARK   55  A    between atoms: _135  and  _137
REMARK   56  A    between atoms: _137  and  _138
REMARK   57  A    between atoms: _137  and  _140
REMARK   58  A    between atoms: _143  and  _145
REMARK   59  A    between atoms: _145  and  _146
REMARK   60  A    between atoms: _145  and  _148
REMARK   61  A    between atoms: _148  and  _149
REMARK   62  A    between atoms: _152  and  _154
REMARK   63  A    between atoms: _154  and  _155
REMARK   64  A    between atoms: _154  and  _157
REMARK   65  A    between atoms: _157  and  _158
REMARK   66  A    between atoms: _158  and  _159
REMARK   67  A    between atoms: _159  and  _160
REMARK   68  A    between atoms: _169  and  _171
REMARK   69  A    between atoms: _171  and  _172
REMARK   70  A    between atoms: _174  and  _176
REMARK   71  A    between atoms: _176  and  _177
REMARK   72  A    between atoms: _176  and  _179
REMARK   73  A    between atoms: _179  and  _180
REMARK   74  A    between atoms: _180  and  _181
REMARK   75  A    between atoms: _186  and  _188
REMARK   76  A    between atoms: _188  and  _189
REMARK   77  A    between atoms: _188  and  _191
REMARK   78  A    between atoms: _191  and  _192
REMARK   79  A    between atoms: _196  and  _197
REMARK   80  A    between atoms: _202  and  _204
REMARK   81  A    between atoms: _204  and  _205
REMARK   82  A    between atoms: _204  and  _207
REMARK   83  A    between atoms: _207  and  _208
REMARK   84  A    between atoms: _213  and  _215
REMARK   85  A    between atoms: _215  and  _216
REMARK   86  A    between atoms: _215  and  _218
REMARK   87  A    between atoms: _218  and  _219
REMARK   88  A    between atoms: _225  and  _227
REMARK   89  A    between atoms: _227  and  _228
REMARK   90  A    between atoms: _227  and  _230
REMARK   91  A    between atoms: _230  and  _231
REMARK   92  A    between atoms: _234  and  _236
REMARK   93  A    between atoms: _236  and  _237
REMARK   94  A    between atoms: _236  and  _239
REMARK   95  A    between atoms: _239  and  _240
REMARK   96  A    between atoms: _245  and  _246
REMARK   97  A    between atoms: _248  and  _250
REMARK   98  A    between atoms: _250  and  _251
REMARK   99  A    between atoms: _250  and  _253
REMARK  100  A    between atoms: _256  and  _258
REMARK  101  A    between atoms: _258  and  _259
REMARK  102  A    between atoms: _258  and  _261
REMARK  103  A    between atoms: _263  and  _265
REMARK  104  A    between atoms: _265  and  _266
REMARK  105  A    between atoms: _269  and  _271
REMARK  106  A    between atoms: _271  and  _272
REMARK  107  A    between atoms: _271  and  _274
REMARK  108  A    between atoms: _277  and  _279
REMARK  109  A    between atoms: _279  and  _280
REMARK  110  A    between atoms: _279  and  _282
REMARK  111  A    between atoms: _285  and  _287
REMARK  112  A    between atoms: _287  and  _288
REMARK  113  A    between atoms: _287  and  _290
REMARK  114  A    between atoms: _290  and  _291
REMARK  115  A    between atoms: _294  and  _296
REMARK  116  A    between atoms: _296  and  _297
REMARK  117  A    between atoms: _296  and  _299
REMARK  118  A    between atoms: _299  and  _300
REMARK  119  A    between atoms: _303  and  _305
REMARK  120  A    between atoms: _305  and  _306
REMARK  121  A    between atoms: _305  and  _308
REMARK  122  A    between atoms: _311  and  _313
REMARK  123  A    between atoms: _313  and  _314
REMARK  124  A    between atoms: _313  and  _316
REMARK  125  A    between atoms: _319  and  _321
REMARK  126  A    between atoms: _321  and  _322
REMARK  127  A    between atoms: _325  and  _327
REMARK  128  A    between atoms: _327  and  _328
REMARK  129  A    between atoms: _327  and  _330
REMARK  130  A    between atoms: _330  and  _331
REMARK  131  A    between atoms: _335  and  _336
REMARK  132  A    between atoms: _341  and  _343
REMARK  133  A    between atoms: _343  and  _344
REMARK  134  A    between atoms: _343  and  _346
REMARK  135  A    between atoms: _346  and  _347
REMARK  136  A    between atoms: _350  and  _352
REMARK  137  A    between atoms: _352  and  _353
REMARK  138  A    between atoms: _356  and  _358
REMARK  139  A    between atoms: _358  and  _359
REMARK  140  A    between atoms: _358  and  _361
REMARK  141  A    between atoms: _361  and  _362
REMARK  142  A    between atoms: _367  and  _369
REMARK  143  A    between atoms: _369  and  _370
REMARK  144  A    between atoms: _372  and  _374
REMARK  145  A    between atoms: _374  and  _375
REMARK  146  A    between atoms: _374  and  _377
REMARK  147  A    between atoms: _380  and  _382
REMARK  148  A    between atoms: _382  and  _383
REMARK  149  A    between atoms: _382  and  _385
REMARK  150  A    between atoms: _385  and  _386
REMARK  151  A    between atoms: _389  and  _391
REMARK  152  A    between atoms: _391  and  _392
REMARK  153  A    between atoms: _391  and  _394
REMARK  154  A    between atoms: _394  and  _395
REMARK  155  A    between atoms: _398  and  _400
REMARK  156  A    between atoms: _400  and  _401
REMARK  157  A    between atoms: _400  and  _403
REMARK  158  A    between atoms: _403  and  _404
REMARK  159  A    between atoms: _407  and  _409
REMARK  160  A    between atoms: _409  and  _410
REMARK  161  A    between atoms: _409  and  _412
REMARK  162  A    between atoms: _412  and  _413
REMARK  163  A    between atoms: _418  and  _420
REMARK  164  A    between atoms: _420  and  _421
REMARK  165  A    between atoms: _420  and  _423
REMARK  166  A    between atoms: _423  and  _424
REMARK  167  A    between atoms: _424  and  _425
REMARK  168  A    between atoms: _430  and  _432
REMARK  169  A    between atoms: _432  and  _433
REMARK  170  A    between atoms: _432  and  _435
REMARK  171  A    between atoms: _435  and  _436
REMARK  172  A    between atoms: _439  and  _441
REMARK  173  A    between atoms: _441  and  _442
REMARK  174  A    between atoms: _441  and  _444
REMARK  175  A    between atoms: _444  and  _445
REMARK  176  A    between atoms: _445  and  _446
REMARK  177  A    between atoms: _446  and  _447
REMARK  178  A    between atoms: _456  and  _458
REMARK  179  A    between atoms: _458  and  _459
REMARK  180  A    between atoms: _458  and  _461
REMARK  181  A    between atoms: _461  and  _462
REMARK  182  A    between atoms: _462  and  _463
REMARK  183  A    between atoms: _466  and  _468
REMARK  184  A    between atoms: _468  and  _469
REMARK  185  A    between atoms: _468  and  _471
REMARK  186  A    between atoms: _471  and  _472
REMARK  187  A    between atoms: _472  and  _473
REMARK  188  A    between atoms: _473  and  _474
REMARK  189  A    between atoms: _474  and  _475
REMARK  190  A    between atoms: _479  and  _481
REMARK  191  A    between atoms: _481  and  _482
REMARK  192  A    between atoms: _484  and  _486
REMARK  193  A    between atoms: _486  and  _487
REMARK  194  A    between atoms: _490  and  _492
REMARK  195  A    between atoms: _492  and  _493
REMARK  196  A    between atoms: _492  and  _495
REMARK  197  A    between atoms: _495  and  _496
REMARK  198  A    between atoms: _496  and  _497
REMARK  199  A    between atoms: _502  and  _504
REMARK  200  A    between atoms: _504  and  _505
REMARK  201  A    between atoms: _508  and  _510
REMARK  202  A    between atoms: _510  and  _511
REMARK  203  A    between atoms: _510  and  _513
REMARK  204  A    between atoms: _513  and  _514
REMARK  205  A    between atoms: _517  and  _519
REMARK  206  A    between atoms: _519  and  _520
REMARK  207  A    between atoms: _519  and  _522
REMARK  208  A    between atoms: _525  and  _527
REMARK  209  A    between atoms: _527  and  _528
REMARK  210  A    between atoms: _531  and  _533
REMARK  211  A    between atoms: _533  and  _534
REMARK  212  A    between atoms: _537  and  _539
REMARK  213  A    between atoms: _539  and  _540
REMARK  214  A    between atoms: _539  and  _542
REMARK  215  A    between atoms: _542  and  _543
REMARK                            x       y       z     vdW  Elec       q    Type
REMARK                         _______ _______ _______ _____ _____    ______ ____
ROOT
ATOM      1  O   HOH     1     -21.328  -2.177   0.879  0.00  0.00    +0.000 OA
ENDROOT
TORSDOF 0
REMARK  Name = ../refined-set-2016/2c92/2c92_pocket.pdb
REMARK  215 active torsions:
REMARK  status: ('A' for Active; 'I' for Inactive)
REMARK    1  A    between atoms: _1  and  _3
REMARK    2  A    between atoms: _3  and  _4
REMARK    3  A    between atoms: _7  and  _9
REMARK    4  A    between atoms: _9  and  _10
REMARK    5  A    between atoms: _9  and  _12
REMARK    6  A    between atoms: _12  and  _13
REMARK    7  A    between atoms: _15  and  _17
REMARK    8  A    between atoms: _17  and  _18
REMARK    9  A    between atoms: _17  and  _20
REMARK   10  A    between atoms: _20  and  _21
REMARK   11  A    between atoms: _23  and  _25
REMARK   12  A    between atoms: _25  and  _26
REMARK   13  A    between atoms: _25  and  _28
REMARK   14  A    between atoms: _28  and  _29
REMARK   15  A    between atoms: _39  and  _41
REMARK   16  A    between atoms: _41  and  _42
REMARK   17  A    between atoms: _41  and  _44
REMARK   18  A    between atoms: _44  and  _45
REMARK   19  A    between atoms: _50  and  _52
REMARK   20  A    between atoms: _52  and  _53
REMARK   21  A    between atoms: _52  and  _55
REMARK   22  A    between atoms: _57  and  _59
REMARK   23  A    between atoms: _59  and  _60
REMARK   24  A    between atoms: _59  and  _62
REMARK   25  A    between atoms: _65  and  _67
REMARK   26  A    between atoms: _67  and  _68
REMARK   27  A    between atoms: _67  and  _70
REMARK   28  A    between atoms: _70  and  _71
REMARK   29  A    between atoms: _74  and  _76
REMARK   30  A    between atoms: _76  and  _77
REMARK   31  A    between atoms: _79  and  _81
REMARK   32  A    between atoms: _81  and  _82
REMARK   33  A    between atoms: _85  and  _87
REMARK   34  A    between atoms: _87  and  _88
REMARK   35  A    between atoms: _87  and  _90
REMARK   36  A    between atoms: _90  and  _91
REMARK   37  A    between atoms: _94  and  _96
REMARK   38  A    between atoms: _96  and  _97
REMARK   39  A    between atoms: _96  and  _99
REMARK   40  A    between atoms: _99  and  _100
REMARK   41  A    between atoms: _100  and  _101
REMARK   42  A    between atoms: _104  and  _106
REMARK   43  A    between atoms: _106  and  _107
REMARK   44  A    between atoms: _106  and  _109
REMARK   45  A    between atoms: _109  and  _110
REMARK   46  A    between atoms: _113  and  _115
REMARK   47  A    between atoms: _115  and  _116
REMARK   48  A    between atoms: _115  and  _118
REMARK   49  A    between atoms: _118  and  _119
REMARK   50  A    between atoms: _122  and  _124
REMARK   51  A    between atoms: _124  and  _125
REMARK   52  A    between atoms: _127  and  _129
REMARK   53  A    between atoms: _129  and  _130
REMARK   54  A    between atoms: _129  and  _132
REMARK   55  A    between atoms: _135  and  _137
REMARK   56  A    between atoms: _137  and  _138
REMARK   57  A    between atoms: _137  and  _140
REMARK   58  A    between atoms: _143  and  _145
REMARK   59  A    between atoms: _145  and  _146
REMARK   60  A    between atoms: _145  and  _148
REMARK   61  A    between atoms: _148  and  _149
REMARK   62  A    between atoms: _152  and  _154
REMARK   63  A    between atoms: _154  and  _155
REMARK   64  A    between atoms: _154  and  _157
REMARK   65  A    between atoms: _157  and  _158
REMARK   66  A    between atoms: _158  and  _159
REMARK   67  A    between atoms: _159  and  _160
REMARK   68  A    between atoms: _169  and  _171
REMARK   69  A    between atoms: _171  and  _172
REMARK   70  A    between atoms: _174  and  _176
REMARK   71  A    between atoms: _176  and  _177
REMARK   72  A    between atoms: _176  and  _179
REMARK   73  A    between atoms: _179  and  _180
REMARK   74  A    between atoms: _180  and  _181
REMARK   75  A    between atoms: _186  and  _188
REMARK   76  A    between atoms: _188  and  _189
REMARK   77  A    between atoms: _188  and  _191
REMARK   78  A    between atoms: _191  and  _192
REMARK   79  A    between atoms: _196  and  _197
REMARK   80  A    between atoms: _202  and  _204
REMARK   81  A    between atoms: _204  and  _205
REMARK   82  A    between atoms: _204  and  _207
REMARK   83  A    between atoms: _207  and  _208
REMARK   84  A    between atoms: _213  and  _215
REMARK   85  A    between atoms: _215  and  _216
REMARK   86  A    between atoms: _215  and  _218
REMARK   87  A    between atoms: _218  and  _219
REMARK   88  A    between atoms: _225  and  _227
REMARK   89  A    between atoms: _227  and  _228
REMARK   90  A    between atoms: _227  and  _230
REMARK   91  A    between atoms: _230  and  _231
REMARK   92  A    between atoms: _234  and  _236
REMARK   93  A    between atoms: _236  and  _237
REMARK   94  A    between atoms: _236  and  _239
REMARK   95  A    between atoms: _239  and  _240
REMARK   96  A    between atoms: _245  and  _246
REMARK   97  A    between atoms: _248  and  _250
REMARK   98  A    between atoms: _250  and  _251
REMARK   99  A    between atoms: _250  and  _253
REMARK  100  A    between atoms: _256  and  _258
REMARK  101  A    between atoms: _258  and  _259
REMARK  102  A    between atoms: _258  and  _261
REMARK  103  A    between atoms: _263  and  _265
REMARK  104  A    between atoms: _265  and  _266
REMARK  105  A    between atoms: _269  and  _271
REMARK  106  A    between atoms: _271  and  _272
REMARK  107  A    between atoms: _271  and  _274
REMARK  108  A    between atoms: _277  and  _279
REMARK  109  A    between atoms: _279  and  _280
REMARK  110  A    between atoms: _279  and  _282
REMARK  111  A    between atoms: _285  and  _287
REMARK  112  A    between atoms: _287  and  _288
REMARK  113  A    between atoms: _287  and  _290
REMARK  114  A    between atoms: _290  and  _291
REMARK  115  A    between atoms: _294  and  _296
REMARK  116  A    between atoms: _296  and  _297
REMARK  117  A    between atoms: _296  and  _299
REMARK  118  A    between atoms: _299  and  _300
REMARK  119  A    between atoms: _303  and  _305
REMARK  120  A    between atoms: _305  and  _306
REMARK  121  A    between atoms: _305  and  _308
REMARK  122  A    between atoms: _311  and  _313
REMARK  123  A    between atoms: _313  and  _314
REMARK  124  A    between atoms: _313  and  _316
REMARK  125  A    between atoms: _319  and  _321
REMARK  126  A    between atoms: _321  and  _322
REMARK  127  A    between atoms: _325  and  _327
REMARK  128  A    between atoms: _327  and  _328
REMARK  129  A    between atoms: _327  and  _330
REMARK  130  A    between atoms: _330  and  _331
REMARK  131  A    between atoms: _335  and  _336
REMARK  132  A    between atoms: _341  and  _343
REMARK  133  A    between atoms: _343  and  _344
REMARK  134  A    between atoms: _343  and  _346
REMARK  135  A    between atoms: _346  and  _347
REMARK  136  A    between atoms: _350  and  _352
REMARK  137  A    between atoms: _352  and  _353
REMARK  138  A    between atoms: _356  and  _358
REMARK  139  A    between atoms: _358  and  _359
REMARK  140  A    between atoms: _358  and  _361
REMARK  141  A    between atoms: _361  and  _362
REMARK  142  A    between atoms: _367  and  _369
REMARK  143  A    between atoms: _369  and  _370
REMARK  144  A    between atoms: _372  and  _374
REMARK  145  A    between atoms: _374  and  _375
REMARK  146  A    between atoms: _374  and  _377
REMARK  147  A    between atoms: _380  and  _382
REMARK  148  A    between atoms: _382  and  _383
REMARK  149  A    between atoms: _382  and  _385
REMARK  150  A    between atoms: _385  and  _386
REMARK  151  A    between atoms: _389  and  _391
REMARK  152  A    between atoms: _391  and  _392
REMARK  153  A    between atoms: _391  and  _394
REMARK  154  A    between atoms: _394  and  _395
REMARK  155  A    between atoms: _398  and  _400
REMARK  156  A    between atoms: _400  and  _401
REMARK  157  A    between atoms: _400  and  _403
REMARK  158  A    between atoms: _403  and  _404
REMARK  159  A    between atoms: _407  and  _409
REMARK  160  A    between atoms: _409  and  _410
REMARK  161  A    between atoms: _409  and  _412
REMARK  162  A    between atoms: _412  and  _413
REMARK  163  A    between atoms: _418  and  _420
REMARK  164  A    between atoms: _420  and  _421
REMARK  165  A    between atoms: _420  and  _423
REMARK  166  A    between atoms: _423  and  _424
REMARK  167  A    between atoms: _424  and  _425
REMARK  168  A    between atoms: _430  and  _432
REMARK  169  A    between atoms: _432  and  _433
REMARK  170  A    between atoms: _432  and  _435
REMARK  171  A    between atoms: _435  and  _436
REMARK  172  A    between atoms: _439  and  _441
REMARK  173  A    between atoms: _441  and  _442
REMARK  174  A    between atoms: _441  and  _444
REMARK  175  A    between atoms: _444  and  _445
REMARK  176  A    between atoms: _445  and  _446
REMARK  177  A    between atoms: _446  and  _447
REMARK  178  A    between atoms: _456  and  _458
REMARK  179  A    between atoms: _458  and  _459
REMARK  180  A    between atoms: _458  and  _461
REMARK  181  A    between atoms: _461  and  _462
REMARK  182  A    between atoms: _462  and  _463
REMARK  183  A    between atoms: _466  and  _468
REMARK  184  A    between atoms: _468  and  _469
REMARK  185  A    between atoms: _468  and  _471
REMARK  186  A    between atoms: _471  and  _472
REMARK  187  A    between atoms: _472  and  _473
REMARK  188  A    between atoms: _473  and  _474
REMARK  189  A    between atoms: _474  and  _475
REMARK  190  A    between atoms: _479  and  _481
REMARK  191  A    between atoms: _481  and  _482
REMARK  192  A    between atoms: _484  and  _486
REMARK  193  A    between atoms: _486  and  _487
REMARK  194  A    between atoms: _490  and  _492
REMARK  195  A    between atoms: _492  and  _493
REMARK  196  A    between atoms: _492  and  _495
REMARK  197  A    between atoms: _495  and  _496
REMARK  198  A    between atoms: _496  and  _497
REMARK  199  A    between atoms: _502  and  _504
REMARK  200  A    between atoms: _504  and  _505
REMARK  201  A    between atoms: _508  and  _510
REMARK  202  A    between atoms: _510  and  _511
REMARK  203  A    between atoms: _510  and  _513
REMARK  204  A    between atoms: _513  and  _514
REMARK  205  A    between atoms: _517  and  _519
REMARK  206  A    between atoms: _519  and  _520
REMARK  207  A    between atoms: _519  and  _522
REMARK  208  A    between atoms: _525  and  _527
REMARK  209  A    between atoms: _527  and  _528
REMARK  210  A    between atoms: _531  and  _533
REMARK  211  A    between atoms: _533  and  _534
REMARK  212  A    between atoms: _537  and  _539
REMARK  213  A    between atoms: _539  and  _540
REMARK  214  A    between atoms: _539  and  _542
REMARK  215  A    between atoms: _542  and  _543
REMARK                            x       y       z     vdW  Elec       q    Type
REMARK                         _______ _______ _______ _____ _____    ______ ____
ROOT
ATOM      1  O   HOH     1     -19.720  -1.505  -1.524  0.00  0.00    +0.000 OA
ENDROOT
TORSDOF 0
REMARK  Name = ../refined-set-2016/2c92/2c92_pocket.pdb
REMARK  215 active torsions:
REMARK  status: ('A' for Active; 'I' for Inactive)
REMARK    1  A    between atoms: _1  and  _3
REMARK    2  A    between atoms: _3  and  _4
REMARK    3  A    between atoms: _7  and  _9
REMARK    4  A    between atoms: _9  and  _10
REMARK    5  A    between atoms: _9  and  _12
REMARK    6  A    between atoms: _12  and  _13
REMARK    7  A    between atoms: _15  and  _17
REMARK    8  A    between atoms: _17  and  _18
REMARK    9  A    between atoms: _17  and  _20
REMARK   10  A    between atoms: _20  and  _21
REMARK   11  A    between atoms: _23  and  _25
REMARK   12  A    between atoms: _25  and  _26
REMARK   13  A    between atoms: _25  and  _28
REMARK   14  A    between atoms: _28  and  _29
REMARK   15  A    between atoms: _39  and  _41
REMARK   16  A    between atoms: _41  and  _42
REMARK   17  A    between atoms: _41  and  _44
REMARK   18  A    between atoms: _44  and  _45
REMARK   19  A    between atoms: _50  and  _52
REMARK   20  A    between atoms: _52  and  _53
REMARK   21  A    between atoms: _52  and  _55
REMARK   22  A    between atoms: _57  and  _59
REMARK   23  A    between atoms: _59  and  _60
REMARK   24  A    between atoms: _59  and  _62
REMARK   25  A    between atoms: _65  and  _67
REMARK   26  A    between atoms: _67  and  _68
REMARK   27  A    between atoms: _67  and  _70
REMARK   28  A    between atoms: _70  and  _71
REMARK   29  A    between atoms: _74  and  _76
REMARK   30  A    between atoms: _76  and  _77
REMARK   31  A    between atoms: _79  and  _81
REMARK   32  A    between atoms: _81  and  _82
REMARK   33  A    between atoms: _85  and  _87
REMARK   34  A    between atoms: _87  and  _88
REMARK   35  A    between atoms: _87  and  _90
REMARK   36  A    between atoms: _90  and  _91
REMARK   37  A    between atoms: _94  and  _96
REMARK   38  A    between atoms: _96  and  _97
REMARK   39  A    between atoms: _96  and  _99
REMARK   40  A    between atoms: _99  and  _100
REMARK   41  A    between atoms: _100  and  _101
REMARK   42  A    between atoms: _104  and  _106
REMARK   43  A    between atoms: _106  and  _107
REMARK   44  A    between atoms: _106  and  _109
REMARK   45  A    between atoms: _109  and  _110
REMARK   46  A    between atoms: _113  and  _115
REMARK   47  A    between atoms: _115  and  _116
REMARK   48  A    between atoms: _115  and  _118
REMARK   49  A    between atoms: _118  and  _119
REMARK   50  A    between atoms: _122  and  _124
REMARK   51  A    between atoms: _124  and  _125
REMARK   52  A    between atoms: _127  and  _129
REMARK   53  A    between atoms: _129  and  _130
REMARK   54  A    between atoms: _129  and  _132
REMARK   55  A    between atoms: _135  and  _137
REMARK   56  A    between atoms: _137  and  _138
REMARK   57  A    between atoms: _137  and  _140
REMARK   58  A    between atoms: _143  and  _145
REMARK   59  A    between atoms: _145  and  _146
REMARK   60  A    between atoms: _145  and  _148
REMARK   61  A    between atoms: _148  and  _149
REMARK   62  A    between atoms: _152  and  _154
REMARK   63  A    between atoms: _154  and  _155
REMARK   64  A    between atoms: _154  and  _157
REMARK   65  A    between atoms: _157  and  _158
REMARK   66  A    between atoms: _158  and  _159
REMARK   67  A    between atoms: _159  and  _160
REMARK   68  A    between atoms: _169  and  _171
REMARK   69  A    between atoms: _171  and  _172
REMARK   70  A    between atoms: _174  and  _176
REMARK   71  A    between atoms: _176  and  _177
REMARK   72  A    between atoms: _176  and  _179
REMARK   73  A    between atoms: _179  and  _180
REMARK   74  A    between atoms: _180  and  _181
REMARK   75  A    between atoms: _186  and  _188
REMARK   76  A    between atoms: _188  and  _189
REMARK   77  A    between atoms: _188  and  _191
REMARK   78  A    between atoms: _191  and  _192
REMARK   79  A    between atoms: _196  and  _197
REMARK   80  A    between atoms: _202  and  _204
REMARK   81  A    between atoms: _204  and  _205
REMARK   82  A    between atoms: _204  and  _207
REMARK   83  A    between atoms: _207  and  _208
REMARK   84  A    between atoms: _213  and  _215
REMARK   85  A    between atoms: _215  and  _216
REMARK   86  A    between atoms: _215  and  _218
REMARK   87  A    between atoms: _218  and  _219
REMARK   88  A    between atoms: _225  and  _227
REMARK   89  A    between atoms: _227  and  _228
REMARK   90  A    between atoms: _227  and  _230
REMARK   91  A    between atoms: _230  and  _231
REMARK   92  A    between atoms: _234  and  _236
REMARK   93  A    between atoms: _236  and  _237
REMARK   94  A    between atoms: _236  and  _239
REMARK   95  A    between atoms: _239  and  _240
REMARK   96  A    between atoms: _245  and  _246
REMARK   97  A    between atoms: _248  and  _250
REMARK   98  A    between atoms: _250  and  _251
REMARK   99  A    between atoms: _250  and  _253
REMARK  100  A    between atoms: _256  and  _258
REMARK  101  A    between atoms: _258  and  _259
REMARK  102  A    between atoms: _258  and  _261
REMARK  103  A    between atoms: _263  and  _265
REMARK  104  A    between atoms: _265  and  _266
REMARK  105  A    between atoms: _269  and  _271
REMARK  106  A    between atoms: _271  and  _272
REMARK  107  A    between atoms: _271  and  _274
REMARK  108  A    between atoms: _277  and  _279
REMARK  109  A    between atoms: _279  and  _280
REMARK  110  A    between atoms: _279  and  _282
REMARK  111  A    between atoms: _285  and  _287
REMARK  112  A    between atoms: _287  and  _288
REMARK  113  A    between atoms: _287  and  _290
REMARK  114  A    between atoms: _290  and  _291
REMARK  115  A    between atoms: _294  and  _296
REMARK  116  A    between atoms: _296  and  _297
REMARK  117  A    between atoms: _296  and  _299
REMARK  118  A    between atoms: _299  and  _300
REMARK  119  A    between atoms: _303  and  _305
REMARK  120  A    between atoms: _305  and  _306
REMARK  121  A    between atoms: _305  and  _308
REMARK  122  A    between atoms: _311  and  _313
REMARK  123  A    between atoms: _313  and  _314
REMARK  124  A    between atoms: _313  and  _316
REMARK  125  A    between atoms: _319  and  _321
REMARK  126  A    between atoms: _321  and  _322
REMARK  127  A    between atoms: _325  and  _327
REMARK  128  A    between atoms: _327  and  _328
REMARK  129  A    between atoms: _327  and  _330
REMARK  130  A    between atoms: _330  and  _331
REMARK  131  A    between atoms: _335  and  _336
REMARK  132  A    between atoms: _341  and  _343
REMARK  133  A    between atoms: _343  and  _344
REMARK  134  A    between atoms: _343  and  _346
REMARK  135  A    between atoms: _346  and  _347
REMARK  136  A    between atoms: _350  and  _352
REMARK  137  A    between atoms: _352  and  _353
REMARK  138  A    between atoms: _356  and  _358
REMARK  139  A    between atoms: _358  and  _359
REMARK  140  A    between atoms: _358  and  _361
REMARK  141  A    between atoms: _361  and  _362
REMARK  142  A    between atoms: _367  and  _369
REMARK  143  A    between atoms: _369  and  _370
REMARK  144  A    between atoms: _372  and  _374
REMARK  145  A    between atoms: _374  and  _375
REMARK  146  A    between atoms: _374  and  _377
REMARK  147  A    between atoms: _380  and  _382
REMARK  148  A    between atoms: _382  and  _383
REMARK  149  A    between atoms: _382  and  _385
REMARK  150  A    between atoms: _385  and  _386
REMARK  151  A    between atoms: _389  and  _391
REMARK  152  A    between atoms: _391  and  _392
REMARK  153  A    between atoms: _391  and  _394
REMARK  154  A    between atoms: _394  and  _395
REMARK  155  A    between atoms: _398  and  _400
REMARK  156  A    between atoms: _400  and  _401
REMARK  157  A    between atoms: _400  and  _403
REMARK  158  A    between atoms: _403  and  _404
REMARK  159  A    between atoms: _407  and  _409
REMARK  160  A    between atoms: _409  and  _410
REMARK  161  A    between atoms: _409  and  _412
REMARK  162  A    between atoms: _412  and  _413
REMARK  163  A    between atoms: _418  and  _420
REMARK  164  A    between atoms: _420  and  _421
REMARK  165  A    between atoms: _420  and  _423
REMARK  166  A    between atoms: _423  and  _424
REMARK  167  A    between atoms: _424  and  _425
REMARK  168  A    between atoms: _430  and  _432
REMARK  169  A    between atoms: _432  and  _433
REMARK  170  A    between atoms: _432  and  _435
REMARK  171  A    between atoms: _435  and  _436
REMARK  172  A    between atoms: _439  and  _441
REMARK  173  A    between atoms: _441  and  _442
REMARK  174  A    between atoms: _441  and  _444
REMARK  175  A    between atoms: _444  and  _445
REMARK  176  A    between atoms: _445  and  _446
REMARK  177  A    between atoms: _446  and  _447
REMARK  178  A    between atoms: _456  and  _458
REMARK  179  A    between atoms: _458  and  _459
REMARK  180  A    between atoms: _458  and  _461
REMARK  181  A    between atoms: _461  and  _462
REMARK  182  A    between atoms: _462  and  _463
REMARK  183  A    between atoms: _466  and  _468
REMARK  184  A    between atoms: _468  and  _469
REMARK  185  A    between atoms: _468  and  _471
REMARK  186  A    between atoms: _471  and  _472
REMARK  187  A    between atoms: _472  and  _473
REMARK  188  A    between atoms: _473  and  _474
REMARK  189  A    between atoms: _474  and  _475
REMARK  190  A    between atoms: _479  and  _481
REMARK  191  A    between atoms: _481  and  _482
REMARK  192  A    between atoms: _484  and  _486
REMARK  193  A    between atoms: _486  and  _487
REMARK  194  A    between atoms: _490  and  _492
REMARK  195  A    between atoms: _492  and  _493
REMARK  196  A    between atoms: _492  and  _495
REMARK  197  A    between atoms: _495  and  _496
REMARK  198  A    between atoms: _496  and  _497
REMARK  199  A    between atoms: _502  and  _504
REMARK  200  A    between atoms: _504  and  _505
REMARK  201  A    between atoms: _508  and  _510
REMARK  202  A    between atoms: _510  and  _511
REMARK  203  A    between atoms: _510  and  _513
REMARK  204  A    between atoms: _513  and  _514
REMARK  205  A    between atoms: _517  and  _519
REMARK  206  A    between atoms: _519  and  _520
REMARK  207  A    between atoms: _519  and  _522
REMARK  208  A    between atoms: _525  and  _527
REMARK  209  A    between atoms: _527  and  _528
REMARK  210  A    between atoms: _531  and  _533
REMARK  211  A    between atoms: _533  and  _534
REMARK  212  A    between atoms: _537  and  _539
REMARK  213  A    between atoms: _539  and  _540
REMARK  214  A    between atoms: _539  and  _542
REMARK  215  A    between atoms: _542  and  _543
REMARK                            x       y       z     vdW  Elec       q    Type
REMARK                         _______ _______ _______ _____ _____    ______ ____
ROOT
ATOM      1  O   HOH     1     -15.749  -3.109  -3.425  0.00  0.00    +0.000 OA
ENDROOT
TORSDOF 0
REMARK  Name = ../refined-set-2016/2c92/2c92_pocket.pdb
REMARK  215 active torsions:
REMARK  status: ('A' for Active; 'I' for Inactive)
REMARK    1  A    between atoms: _1  and  _3
REMARK    2  A    between atoms: _3  and  _4
REMARK    3  A    between atoms: _7  and  _9
REMARK    4  A    between atoms: _9  and  _10
REMARK    5  A    between atoms: _9  and  _12
REMARK    6  A    between atoms: _12  and  _13
REMARK    7  A    between atoms: _15  and  _17
REMARK    8  A    between atoms: _17  and  _18
REMARK    9  A    between atoms: _17  and  _20
REMARK   10  A    between atoms: _20  and  _21
REMARK   11  A    between atoms: _23  and  _25
REMARK   12  A    between atoms: _25  and  _26
REMARK   13  A    between atoms: _25  and  _28
REMARK   14  A    between atoms: _28  and  _29
REMARK   15  A    between atoms: _39  and  _41
REMARK   16  A    between atoms: _41  and  _42
REMARK   17  A    between atoms: _41  and  _44
REMARK   18  A    between atoms: _44  and  _45
REMARK   19  A    between atoms: _50  and  _52
REMARK   20  A    between atoms: _52  and  _53
REMARK   21  A    between atoms: _52  and  _55
REMARK   22  A    between atoms: _57  and  _59
REMARK   23  A    between atoms: _59  and  _60
REMARK   24  A    between atoms: _59  and  _62
REMARK   25  A    between atoms: _65  and  _67
REMARK   26  A    between atoms: _67  and  _68
REMARK   27  A    between atoms: _67  and  _70
REMARK   28  A    between atoms: _70  and  _71
REMARK   29  A    between atoms: _74  and  _76
REMARK   30  A    between atoms: _76  and  _77
REMARK   31  A    between atoms: _79  and  _81
REMARK   32  A    between atoms: _81  and  _82
REMARK   33  A    between atoms: _85  and  _87
REMARK   34  A    between atoms: _87  and  _88
REMARK   35  A    between atoms: _87  and  _90
REMARK   36  A    between atoms: _90  and  _91
REMARK   37  A    between atoms: _94  and  _96
REMARK   38  A    between atoms: _96  and  _97
REMARK   39  A    between atoms: _96  and  _99
REMARK   40  A    between atoms: _99  and  _100
REMARK   41  A    between atoms: _100  and  _101
REMARK   42  A    between atoms: _104  and  _106
REMARK   43  A    between atoms: _106  and  _107
REMARK   44  A    between atoms: _106  and  _109
REMARK   45  A    between atoms: _109  and  _110
REMARK   46  A    between atoms: _113  and  _115
REMARK   47  A    between atoms: _115  and  _116
REMARK   48  A    between atoms: _115  and  _118
REMARK   49  A    between atoms: _118  and  _119
REMARK   50  A    between atoms: _122  and  _124
REMARK   51  A    between atoms: _124  and  _125
REMARK   52  A    between atoms: _127  and  _129
REMARK   53  A    between atoms: _129  and  _130
REMARK   54  A    between atoms: _129  and  _132
REMARK   55  A    between atoms: _135  and  _137
REMARK   56  A    between atoms: _137  and  _138
REMARK   57  A    between atoms: _137  and  _140
REMARK   58  A    between atoms: _143  and  _145
REMARK   59  A    between atoms: _145  and  _146
REMARK   60  A    between atoms: _145  and  _148
REMARK   61  A    between atoms: _148  and  _149
REMARK   62  A    between atoms: _152  and  _154
REMARK   63  A    between atoms: _154  and  _155
REMARK   64  A    between atoms: _154  and  _157
REMARK   65  A    between atoms: _157  and  _158
REMARK   66  A    between atoms: _158  and  _159
REMARK   67  A    between atoms: _159  and  _160
REMARK   68  A    between atoms: _169  and  _171
REMARK   69  A    between atoms: _171  and  _172
REMARK   70  A    between atoms: _174  and  _176
REMARK   71  A    between atoms: _176  and  _177
REMARK   72  A    between atoms: _176  and  _179
REMARK   73  A    between atoms: _179  and  _180
REMARK   74  A    between atoms: _180  and  _181
REMARK   75  A    between atoms: _186  and  _188
REMARK   76  A    between atoms: _188  and  _189
REMARK   77  A    between atoms: _188  and  _191
REMARK   78  A    between atoms: _191  and  _192
REMARK   79  A    between atoms: _196  and  _197
REMARK   80  A    between atoms: _202  and  _204
REMARK   81  A    between atoms: _204  and  _205
REMARK   82  A    between atoms: _204  and  _207
REMARK   83  A    between atoms: _207  and  _208
REMARK   84  A    between atoms: _213  and  _215
REMARK   85  A    between atoms: _215  and  _216
REMARK   86  A    between atoms: _215  and  _218
REMARK   87  A    between atoms: _218  and  _219
REMARK   88  A    between atoms: _225  and  _227
REMARK   89  A    between atoms: _227  and  _228
REMARK   90  A    between atoms: _227  and  _230
REMARK   91  A    between atoms: _230  and  _231
REMARK   92  A    between atoms: _234  and  _236
REMARK   93  A    between atoms: _236  and  _237
REMARK   94  A    between atoms: _236  and  _239
REMARK   95  A    between atoms: _239  and  _240
REMARK   96  A    between atoms: _245  and  _246
REMARK   97  A    between atoms: _248  and  _250
REMARK   98  A    between atoms: _250  and  _251
REMARK   99  A    between atoms: _250  and  _253
REMARK  100  A    between atoms: _256  and  _258
REMARK  101  A    between atoms: _258  and  _259
REMARK  102  A    between atoms: _258  and  _261
REMARK  103  A    between atoms: _263  and  _265
REMARK  104  A    between atoms: _265  and  _266
REMARK  105  A    between atoms: _269  and  _271
REMARK  106  A    between atoms: _271  and  _272
REMARK  107  A    between atoms: _271  and  _274
REMARK  108  A    between atoms: _277  and  _279
REMARK  109  A    between atoms: _279  and  _280
REMARK  110  A    between atoms: _279  and  _282
REMARK  111  A    between atoms: _285  and  _287
REMARK  112  A    between atoms: _287  and  _288
REMARK  113  A    between atoms: _287  and  _290
REMARK  114  A    between atoms: _290  and  _291
REMARK  115  A    between atoms: _294  and  _296
REMARK  116  A    between atoms: _296  and  _297
REMARK  117  A    between atoms: _296  and  _299
REMARK  118  A    between atoms: _299  and  _300
REMARK  119  A    between atoms: _303  and  _305
REMARK  120  A    between atoms: _305  and  _306
REMARK  121  A    between atoms: _305  and  _308
REMARK  122  A    between atoms: _311  and  _313
REMARK  123  A    between atoms: _313  and  _314
REMARK  124  A    between atoms: _313  and  _316
REMARK  125  A    between atoms: _319  and  _321
REMARK  126  A    between atoms: _321  and  _322
REMARK  127  A    between atoms: _325  and  _327
REMARK  128  A    between atoms: _327  and  _328
REMARK  129  A    between atoms: _327  and  _330
REMARK  130  A    between atoms: _330  and  _331
REMARK  131  A    between atoms: _335  and  _336
REMARK  132  A    between atoms: _341  and  _343
REMARK  133  A    between atoms: _343  and  _344
REMARK  134  A    between atoms: _343  and  _346
REMARK  135  A    between atoms: _346  and  _347
REMARK  136  A    between atoms: _350  and  _352
REMARK  137  A    between atoms: _352  and  _353
REMARK  138  A    between atoms: _356  and  _358
REMARK  139  A    between atoms: _358  and  _359
REMARK  140  A    between atoms: _358  and  _361
REMARK  141  A    between atoms: _361  and  _362
REMARK  142  A    between atoms: _367  and  _369
REMARK  143  A    between atoms: _369  and  _370
REMARK  144  A    between atoms: _372  and  _374
REMARK  145  A    between atoms: _374  and  _375
REMARK  146  A    between atoms: _374  and  _377
REMARK  147  A    between atoms: _380  and  _382
REMARK  148  A    between atoms: _382  and  _383
REMARK  149  A    between atoms: _382  and  _385
REMARK  150  A    between atoms: _385  and  _386
REMARK  151  A    between atoms: _389  and  _391
REMARK  152  A    between atoms: _391  and  _392
REMARK  153  A    between atoms: _391  and  _394
REMARK  154  A    between atoms: _394  and  _395
REMARK  155  A    between atoms: _398  and  _400
REMARK  156  A    between atoms: _400  and  _401
REMARK  157  A    between atoms: _400  and  _403
REMARK  158  A    between atoms: _403  and  _404
REMARK  159  A    between atoms: _407  and  _409
REMARK  160  A    between atoms: _409  and  _410
REMARK  161  A    between atoms: _409  and  _412
REMARK  162  A    between atoms: _412  and  _413
REMARK  163  A    between atoms: _418  and  _420
REMARK  164  A    between atoms: _420  and  _421
REMARK  165  A    between atoms: _420  and  _423
REMARK  166  A    between atoms: _423  and  _424
REMARK  167  A    between atoms: _424  and  _425
REMARK  168  A    between atoms: _430  and  _432
REMARK  169  A    between atoms: _432  and  _433
REMARK  170  A    between atoms: _432  and  _435
REMARK  171  A    between atoms: _435  and  _436
REMARK  172  A    between atoms: _439  and  _441
REMARK  173  A    between atoms: _441  and  _442
REMARK  174  A    between atoms: _441  and  _444
REMARK  175  A    between atoms: _444  and  _445
REMARK  176  A    between atoms: _445  and  _446
REMARK  177  A    between atoms: _446  and  _447
REMARK  178  A    between atoms: _456  and  _458
REMARK  179  A    between atoms: _458  and  _459
REMARK  180  A    between atoms: _458  and  _461
REMARK  181  A    between atoms: _461  and  _462
REMARK  182  A    between atoms: _462  and  _463
REMARK  183  A    between atoms: _466  and  _468
REMARK  184  A    between atoms: _468  and  _469
REMARK  185  A    between atoms: _468  and  _471
REMARK  186  A    between atoms: _471  and  _472
REMARK  187  A    between atoms: _472  and  _473
REMARK  188  A    between atoms: _473  and  _474
REMARK  189  A    between atoms: _474  and  _475
REMARK  190  A    between atoms: _479  and  _481
REMARK  191  A    between atoms: _481  and  _482
REMARK  192  A    between atoms: _484  and  _486
REMARK  193  A    between atoms: _486  and  _487
REMARK  194  A    between atoms: _490  and  _492
REMARK  195  A    between atoms: _492  and  _493
REMARK  196  A    between atoms: _492  and  _495
REMARK  197  A    between atoms: _495  and  _496
REMARK  198  A    between atoms: _496  and  _497
REMARK  199  A    between atoms: _502  and  _504
REMARK  200  A    between atoms: _504  and  _505
REMARK  201  A    between atoms: _508  and  _510
REMARK  202  A    between atoms: _510  and  _511
REMARK  203  A    between atoms: _510  and  _513
REMARK  204  A    between atoms: _513  and  _514
REMARK  205  A    between atoms: _517  and  _519
REMARK  206  A    between atoms: _519  and  _520
REMARK  207  A    between atoms: _519  and  _522
REMARK  208  A    between atoms: _525  and  _527
REMARK  209  A    between atoms: _527  and  _528
REMARK  210  A    between atoms: _531  and  _533
REMARK  211  A    between atoms: _533  and  _534
REMARK  212  A    between atoms: _537  and  _539
REMARK  213  A    between atoms: _539  and  _540
REMARK  214  A    between atoms: _539  and  _542
REMARK  215  A    between atoms: _542  and  _543
REMARK                            x       y       z     vdW  Elec       q    Type
REMARK                         _______ _______ _______ _____ _____    ______ ____
ROOT
ATOM      1  O   HOH     1     -11.818   1.337   2.729  0.00  0.00    +0.000 OA
ENDROOT
TORSDOF 0
REMARK  Name = ../refined-set-2016/2c92/2c92_pocket.pdb
REMARK  215 active torsions:
REMARK  status: ('A' for Active; 'I' for Inactive)
REMARK    1  A    between atoms: _1  and  _3
REMARK    2  A    between atoms: _3  and  _4
REMARK    3  A    between atoms: _7  and  _9
REMARK    4  A    between atoms: _9  and  _10
REMARK    5  A    between atoms: _9  and  _12
REMARK    6  A    between atoms: _12  and  _13
REMARK    7  A    between atoms: _15  and  _17
REMARK    8  A    between atoms: _17  and  _18
REMARK    9  A    between atoms: _17  and  _20
REMARK   10  A    between atoms: _20  and  _21
REMARK   11  A    between atoms: _23  and  _25
REMARK   12  A    between atoms: _25  and  _26
REMARK   13  A    between atoms: _25  and  _28
REMARK   14  A    between atoms: _28  and  _29
REMARK   15  A    between atoms: _39  and  _41
REMARK   16  A    between atoms: _41  and  _42
REMARK   17  A    between atoms: _41  and  _44
REMARK   18  A    between atoms: _44  and  _45
REMARK   19  A    between atoms: _50  and  _52
REMARK   20  A    between atoms: _52  and  _53
REMARK   21  A    between atoms: _52  and  _55
REMARK   22  A    between atoms: _57  and  _59
REMARK   23  A    between atoms: _59  and  _60
REMARK   24  A    between atoms: _59  and  _62
REMARK   25  A    between atoms: _65  and  _67
REMARK   26  A    between atoms: _67  and  _68
REMARK   27  A    between atoms: _67  and  _70
REMARK   28  A    between atoms: _70  and  _71
REMARK   29  A    between atoms: _74  and  _76
REMARK   30  A    between atoms: _76  and  _77
REMARK   31  A    between atoms: _79  and  _81
REMARK   32  A    between atoms: _81  and  _82
REMARK   33  A    between atoms: _85  and  _87
REMARK   34  A    between atoms: _87  and  _88
REMARK   35  A    between atoms: _87  and  _90
REMARK   36  A    between atoms: _90  and  _91
REMARK   37  A    between atoms: _94  and  _96
REMARK   38  A    between atoms: _96  and  _97
REMARK   39  A    between atoms: _96  and  _99
REMARK   40  A    between atoms: _99  and  _100
REMARK   41  A    between atoms: _100  and  _101
REMARK   42  A    between atoms: _104  and  _106
REMARK   43  A    between atoms: _106  and  _107
REMARK   44  A    between atoms: _106  and  _109
REMARK   45  A    between atoms: _109  and  _110
REMARK   46  A    between atoms: _113  and  _115
REMARK   47  A    between atoms: _115  and  _116
REMARK   48  A    between atoms: _115  and  _118
REMARK   49  A    between atoms: _118  and  _119
REMARK   50  A    between atoms: _122  and  _124
REMARK   51  A    between atoms: _124  and  _125
REMARK   52  A    between atoms: _127  and  _129
REMARK   53  A    between atoms: _129  and  _130
REMARK   54  A    between atoms: _129  and  _132
REMARK   55  A    between atoms: _135  and  _137
REMARK   56  A    between atoms: _137  and  _138
REMARK   57  A    between atoms: _137  and  _140
REMARK   58  A    between atoms: _143  and  _145
REMARK   59  A    between atoms: _145  and  _146
REMARK   60  A    between atoms: _145  and  _148
REMARK   61  A    between atoms: _148  and  _149
REMARK   62  A    between atoms: _152  and  _154
REMARK   63  A    between atoms: _154  and  _155
REMARK   64  A    between atoms: _154  and  _157
REMARK   65  A    between atoms: _157  and  _158
REMARK   66  A    between atoms: _158  and  _159
REMARK   67  A    between atoms: _159  and  _160
REMARK   68  A    between atoms: _169  and  _171
REMARK   69  A    between atoms: _171  and  _172
REMARK   70  A    between atoms: _174  and  _176
REMARK   71  A    between atoms: _176  and  _177
REMARK   72  A    between atoms: _176  and  _179
REMARK   73  A    between atoms: _179  and  _180
REMARK   74  A    between atoms: _180  and  _181
REMARK   75  A    between atoms: _186  and  _188
REMARK   76  A    between atoms: _188  and  _189
REMARK   77  A    between atoms: _188  and  _191
REMARK   78  A    between atoms: _191  and  _192
REMARK   79  A    between atoms: _196  and  _197
REMARK   80  A    between atoms: _202  and  _204
REMARK   81  A    between atoms: _204  and  _205
REMARK   82  A    between atoms: _204  and  _207
REMARK   83  A    between atoms: _207  and  _208
REMARK   84  A    between atoms: _213  and  _215
REMARK   85  A    between atoms: _215  and  _216
REMARK   86  A    between atoms: _215  and  _218
REMARK   87  A    between atoms: _218  and  _219
REMARK   88  A    between atoms: _225  and  _227
REMARK   89  A    between atoms: _227  and  _228
REMARK   90  A    between atoms: _227  and  _230
REMARK   91  A    between atoms: _230  and  _231
REMARK   92  A    between atoms: _234  and  _236
REMARK   93  A    between atoms: _236  and  _237
REMARK   94  A    between atoms: _236  and  _239
REMARK   95  A    between atoms: _239  and  _240
REMARK   96  A    between atoms: _245  and  _246
REMARK   97  A    between atoms: _248  and  _250
REMARK   98  A    between atoms: _250  and  _251
REMARK   99  A    between atoms: _250  and  _253
REMARK  100  A    between atoms: _256  and  _258
REMARK  101  A    between atoms: _258  and  _259
REMARK  102  A    between atoms: _258  and  _261
REMARK  103  A    between atoms: _263  and  _265
REMARK  104  A    between atoms: _265  and  _266
REMARK  105  A    between atoms: _269  and  _271
REMARK  106  A    between atoms: _271  and  _272
REMARK  107  A    between atoms: _271  and  _274
REMARK  108  A    between atoms: _277  and  _279
REMARK  109  A    between atoms: _279  and  _280
REMARK  110  A    between atoms: _279  and  _282
REMARK  111  A    between atoms: _285  and  _287
REMARK  112  A    between atoms: _287  and  _288
REMARK  113  A    between atoms: _287  and  _290
REMARK  114  A    between atoms: _290  and  _291
REMARK  115  A    between atoms: _294  and  _296
REMARK  116  A    between atoms: _296  and  _297
REMARK  117  A    between atoms: _296  and  _299
REMARK  118  A    between atoms: _299  and  _300
REMARK  119  A    between atoms: _303  and  _305
REMARK  120  A    between atoms: _305  and  _306
REMARK  121  A    between atoms: _305  and  _308
REMARK  122  A    between atoms: _311  and  _313
REMARK  123  A    between atoms: _313  and  _314
REMARK  124  A    between atoms: _313  and  _316
REMARK  125  A    between atoms: _319  and  _321
REMARK  126  A    between atoms: _321  and  _322
REMARK  127  A    between atoms: _325  and  _327
REMARK  128  A    between atoms: _327  and  _328
REMARK  129  A    between atoms: _327  and  _330
REMARK  130  A    between atoms: _330  and  _331
REMARK  131  A    between atoms: _335  and  _336
REMARK  132  A    between atoms: _341  and  _343
REMARK  133  A    between atoms: _343  and  _344
REMARK  134  A    between atoms: _343  and  _346
REMARK  135  A    between atoms: _346  and  _347
REMARK  136  A    between atoms: _350  and  _352
REMARK  137  A    between atoms: _352  and  _353
REMARK  138  A    between atoms: _356  and  _358
REMARK  139  A    between atoms: _358  and  _359
REMARK  140  A    between atoms: _358  and  _361
REMARK  141  A    between atoms: _361  and  _362
REMARK  142  A    between atoms: _367  and  _369
REMARK  143  A    between atoms: _369  and  _370
REMARK  144  A    between atoms: _372  and  _374
REMARK  145  A    between atoms: _374  and  _375
REMARK  146  A    between atoms: _374  and  _377
REMARK  147  A    between atoms: _380  and  _382
REMARK  148  A    between atoms: _382  and  _383
REMARK  149  A    between atoms: _382  and  _385
REMARK  150  A    between atoms: _385  and  _386
REMARK  151  A    between atoms: _389  and  _391
REMARK  152  A    between atoms: _391  and  _392
REMARK  153  A    between atoms: _391  and  _394
REMARK  154  A    between atoms: _394  and  _395
REMARK  155  A    between atoms: _398  and  _400
REMARK  156  A    between atoms: _400  and  _401
REMARK  157  A    between atoms: _400  and  _403
REMARK  158  A    between atoms: _403  and  _404
REMARK  159  A    between atoms: _407  and  _409
REMARK  160  A    between atoms: _409  and  _410
REMARK  161  A    between atoms: _409  and  _412
REMARK  162  A    between atoms: _412  and  _413
REMARK  163  A    between atoms: _418  and  _420
REMARK  164  A    between atoms: _420  and  _421
REMARK  165  A    between atoms: _420  and  _423
REMARK  166  A    between atoms: _423  and  _424
REMARK  167  A    between atoms: _424  and  _425
REMARK  168  A    between atoms: _430  and  _432
REMARK  169  A    between atoms: _432  and  _433
REMARK  170  A    between atoms: _432  and  _435
REMARK  171  A    between atoms: _435  and  _436
REMARK  172  A    between atoms: _439  and  _441
REMARK  173  A    between atoms: _441  and  _442
REMARK  174  A    between atoms: _441  and  _444
REMARK  175  A    between atoms: _444  and  _445
REMARK  176  A    between atoms: _445  and  _446
REMARK  177  A    between atoms: _446  and  _447
REMARK  178  A    between atoms: _456  and  _458
REMARK  179  A    between atoms: _458  and  _459
REMARK  180  A    between atoms: _458  and  _461
REMARK  181  A    between atoms: _461  and  _462
REMARK  182  A    between atoms: _462  and  _463
REMARK  183  A    between atoms: _466  and  _468
REMARK  184  A    between atoms: _468  and  _469
REMARK  185  A    between atoms: _468  and  _471
REMARK  186  A    between atoms: _471  and  _472
REMARK  187  A    between atoms: _472  and  _473
REMARK  188  A    between atoms: _473  and  _474
REMARK  189  A    between atoms: _474  and  _475
REMARK  190  A    between atoms: _479  and  _481
REMARK  191  A    between atoms: _481  and  _482
REMARK  192  A    between atoms: _484  and  _486
REMARK  193  A    between atoms: _486  and  _487
REMARK  194  A    between atoms: _490  and  _492
REMARK  195  A    between atoms: _492  and  _493
REMARK  196  A    between atoms: _492  and  _495
REMARK  197  A    between atoms: _495  and  _496
REMARK  198  A    between atoms: _496  and  _497
REMARK  199  A    between atoms: _502  and  _504
REMARK  200  A    between atoms: _504  and  _505
REMARK  201  A    between atoms: _508  and  _510
REMARK  202  A    between atoms: _510  and  _511
REMARK  203  A    between atoms: _510  and  _513
REMARK  204  A    between atoms: _513  and  _514
REMARK  205  A    between atoms: _517  and  _519
REMARK  206  A    between atoms: _519  and  _520
REMARK  207  A    between atoms: _519  and  _522
REMARK  208  A    between atoms: _525  and  _527
REMARK  209  A    between atoms: _527  and  _528
REMARK  210  A    between atoms: _531  and  _533
REMARK  211  A    between atoms: _533  and  _534
REMARK  212  A    between atoms: _537  and  _539
REMARK  213  A    between atoms: _539  and  _540
REMARK  214  A    between atoms: _539  and  _542
REMARK  215  A    between atoms: _542  and  _543
REMARK                            x       y       z     vdW  Elec       q    Type
REMARK                         _______ _______ _______ _____ _____    ______ ____
ROOT
ATOM      1  O   HOH     1     -13.745  -1.064  -2.847  0.00  0.00    +0.000 OA
ENDROOT
TORSDOF 0
REMARK  Name = ../refined-set-2016/2c92/2c92_pocket.pdb
REMARK  215 active torsions:
REMARK  status: ('A' for Active; 'I' for Inactive)
REMARK    1  A    between atoms: _1  and  _3
REMARK    2  A    between atoms: _3  and  _4
REMARK    3  A    between atoms: _7  and  _9
REMARK    4  A    between atoms: _9  and  _10
REMARK    5  A    between atoms: _9  and  _12
REMARK    6  A    between atoms: _12  and  _13
REMARK    7  A    between atoms: _15  and  _17
REMARK    8  A    between atoms: _17  and  _18
REMARK    9  A    between atoms: _17  and  _20
REMARK   10  A    between atoms: _20  and  _21
REMARK   11  A    between atoms: _23  and  _25
REMARK   12  A    between atoms: _25  and  _26
REMARK   13  A    between atoms: _25  and  _28
REMARK   14  A    between atoms: _28  and  _29
REMARK   15  A    between atoms: _39  and  _41
REMARK   16  A    between atoms: _41  and  _42
REMARK   17  A    between atoms: _41  and  _44
REMARK   18  A    between atoms: _44  and  _45
REMARK   19  A    between atoms: _50  and  _52
REMARK   20  A    between atoms: _52  and  _53
REMARK   21  A    between atoms: _52  and  _55
REMARK   22  A    between atoms: _57  and  _59
REMARK   23  A    between atoms: _59  and  _60
REMARK   24  A    between atoms: _59  and  _62
REMARK   25  A    between atoms: _65  and  _67
REMARK   26  A    between atoms: _67  and  _68
REMARK   27  A    between atoms: _67  and  _70
REMARK   28  A    between atoms: _70  and  _71
REMARK   29  A    between atoms: _74  and  _76
REMARK   30  A    between atoms: _76  and  _77
REMARK   31  A    between atoms: _79  and  _81
REMARK   32  A    between atoms: _81  and  _82
REMARK   33  A    between atoms: _85  and  _87
REMARK   34  A    between atoms: _87  and  _88
REMARK   35  A    between atoms: _87  and  _90
REMARK   36  A    between atoms: _90  and  _91
REMARK   37  A    between atoms: _94  and  _96
REMARK   38  A    between atoms: _96  and  _97
REMARK   39  A    between atoms: _96  and  _99
REMARK   40  A    between atoms: _99  and  _100
REMARK   41  A    between atoms: _100  and  _101
REMARK   42  A    between atoms: _104  and  _106
REMARK   43  A    between atoms: _106  and  _107
REMARK   44  A    between atoms: _106  and  _109
REMARK   45  A    between atoms: _109  and  _110
REMARK   46  A    between atoms: _113  and  _115
REMARK   47  A    between atoms: _115  and  _116
REMARK   48  A    between atoms: _115  and  _118
REMARK   49  A    between atoms: _118  and  _119
REMARK   50  A    between atoms: _122  and  _124
REMARK   51  A    between atoms: _124  and  _125
REMARK   52  A    between atoms: _127  and  _129
REMARK   53  A    between atoms: _129  and  _130
REMARK   54  A    between atoms: _129  and  _132
REMARK   55  A    between atoms: _135  and  _137
REMARK   56  A    between atoms: _137  and  _138
REMARK   57  A    between atoms: _137  and  _140
REMARK   58  A    between atoms: _143  and  _145
REMARK   59  A    between atoms: _145  and  _146
REMARK   60  A    between atoms: _145  and  _148
REMARK   61  A    between atoms: _148  and  _149
REMARK   62  A    between atoms: _152  and  _154
REMARK   63  A    between atoms: _154  and  _155
REMARK   64  A    between atoms: _154  and  _157
REMARK   65  A    between atoms: _157  and  _158
REMARK   66  A    between atoms: _158  and  _159
REMARK   67  A    between atoms: _159  and  _160
REMARK   68  A    between atoms: _169  and  _171
REMARK   69  A    between atoms: _171  and  _172
REMARK   70  A    between atoms: _174  and  _176
REMARK   71  A    between atoms: _176  and  _177
REMARK   72  A    between atoms: _176  and  _179
REMARK   73  A    between atoms: _179  and  _180
REMARK   74  A    between atoms: _180  and  _181
REMARK   75  A    between atoms: _186  and  _188
REMARK   76  A    between atoms: _188  and  _189
REMARK   77  A    between atoms: _188  and  _191
REMARK   78  A    between atoms: _191  and  _192
REMARK   79  A    between atoms: _196  and  _197
REMARK   80  A    between atoms: _202  and  _204
REMARK   81  A    between atoms: _204  and  _205
REMARK   82  A    between atoms: _204  and  _207
REMARK   83  A    between atoms: _207  and  _208
REMARK   84  A    between atoms: _213  and  _215
REMARK   85  A    between atoms: _215  and  _216
REMARK   86  A    between atoms: _215  and  _218
REMARK   87  A    between atoms: _218  and  _219
REMARK   88  A    between atoms: _225  and  _227
REMARK   89  A    between atoms: _227  and  _228
REMARK   90  A    between atoms: _227  and  _230
REMARK   91  A    between atoms: _230  and  _231
REMARK   92  A    between atoms: _234  and  _236
REMARK   93  A    between atoms: _236  and  _237
REMARK   94  A    between atoms: _236  and  _239
REMARK   95  A    between atoms: _239  and  _240
REMARK   96  A    between atoms: _245  and  _246
REMARK   97  A    between atoms: _248  and  _250
REMARK   98  A    between atoms: _250  and  _251
REMARK   99  A    between atoms: _250  and  _253
REMARK  100  A    between atoms: _256  and  _258
REMARK  101  A    between atoms: _258  and  _259
REMARK  102  A    between atoms: _258  and  _261
REMARK  103  A    between atoms: _263  and  _265
REMARK  104  A    between atoms: _265  and  _266
REMARK  105  A    between atoms: _269  and  _271
REMARK  106  A    between atoms: _271  and  _272
REMARK  107  A    between atoms: _271  and  _274
REMARK  108  A    between atoms: _277  and  _279
REMARK  109  A    between atoms: _279  and  _280
REMARK  110  A    between atoms: _279  and  _282
REMARK  111  A    between atoms: _285  and  _287
REMARK  112  A    between atoms: _287  and  _288
REMARK  113  A    between atoms: _287  and  _290
REMARK  114  A    between atoms: _290  and  _291
REMARK  115  A    between atoms: _294  and  _296
REMARK  116  A    between atoms: _296  and  _297
REMARK  117  A    between atoms: _296  and  _299
REMARK  118  A    between atoms: _299  and  _300
REMARK  119  A    between atoms: _303  and  _305
REMARK  120  A    between atoms: _305  and  _306
REMARK  121  A    between atoms: _305  and  _308
REMARK  122  A    between atoms: _311  and  _313
REMARK  123  A    between atoms: _313  and  _314
REMARK  124  A    between atoms: _313  and  _316
REMARK  125  A    between atoms: _319  and  _321
REMARK  126  A    between atoms: _321  and  _322
REMARK  127  A    between atoms: _325  and  _327
REMARK  128  A    between atoms: _327  and  _328
REMARK  129  A    between atoms: _327  and  _330
REMARK  130  A    between atoms: _330  and  _331
REMARK  131  A    between atoms: _335  and  _336
REMARK  132  A    between atoms: _341  and  _343
REMARK  133  A    between atoms: _343  and  _344
REMARK  134  A    between atoms: _343  and  _346
REMARK  135  A    between atoms: _346  and  _347
REMARK  136  A    between atoms: _350  and  _352
REMARK  137  A    between atoms: _352  and  _353
REMARK  138  A    between atoms: _356  and  _358
REMARK  139  A    between atoms: _358  and  _359
REMARK  140  A    between atoms: _358  and  _361
REMARK  141  A    between atoms: _361  and  _362
REMARK  142  A    between atoms: _367  and  _369
REMARK  143  A    between atoms: _369  and  _370
REMARK  144  A    between atoms: _372  and  _374
REMARK  145  A    between atoms: _374  and  _375
REMARK  146  A    between atoms: _374  and  _377
REMARK  147  A    between atoms: _380  and  _382
REMARK  148  A    between atoms: _382  and  _383
REMARK  149  A    between atoms: _382  and  _385
REMARK  150  A    between atoms: _385  and  _386
REMARK  151  A    between atoms: _389  and  _391
REMARK  152  A    between atoms: _391  and  _392
REMARK  153  A    between atoms: _391  and  _394
REMARK  154  A    between atoms: _394  and  _395
REMARK  155  A    between atoms: _398  and  _400
REMARK  156  A    between atoms: _400  and  _401
REMARK  157  A    between atoms: _400  and  _403
REMARK  158  A    between atoms: _403  and  _404
REMARK  159  A    between atoms: _407  and  _409
REMARK  160  A    between atoms: _409  and  _410
REMARK  161  A    between atoms: _409  and  _412
REMARK  162  A    between atoms: _412  and  _413
REMARK  163  A    between atoms: _418  and  _420
REMARK  164  A    between atoms: _420  and  _421
REMARK  165  A    between atoms: _420  and  _423
REMARK  166  A    between atoms: _423  and  _424
REMARK  167  A    between atoms: _424  and  _425
REMARK  168  A    between atoms: _430  and  _432
REMARK  169  A    between atoms: _432  and  _433
REMARK  170  A    between atoms: _432  and  _435
REMARK  171  A    between atoms: _435  and  _436
REMARK  172  A    between atoms: _439  and  _441
REMARK  173  A    between atoms: _441  and  _442
REMARK  174  A    between atoms: _441  and  _444
REMARK  175  A    between atoms: _444  and  _445
REMARK  176  A    between atoms: _445  and  _446
REMARK  177  A    between atoms: _446  and  _447
REMARK  178  A    between atoms: _456  and  _458
REMARK  179  A    between atoms: _458  and  _459
REMARK  180  A    between atoms: _458  and  _461
REMARK  181  A    between atoms: _461  and  _462
REMARK  182  A    between atoms: _462  and  _463
REMARK  183  A    between atoms: _466  and  _468
REMARK  184  A    between atoms: _468  and  _469
REMARK  185  A    between atoms: _468  and  _471
REMARK  186  A    between atoms: _471  and  _472
REMARK  187  A    between atoms: _472  and  _473
REMARK  188  A    between atoms: _473  and  _474
REMARK  189  A    between atoms: _474  and  _475
REMARK  190  A    between atoms: _479  and  _481
REMARK  191  A    between atoms: _481  and  _482
REMARK  192  A    between atoms: _484  and  _486
REMARK  193  A    between atoms: _486  and  _487
REMARK  194  A    between atoms: _490  and  _492
REMARK  195  A    between atoms: _492  and  _493
REMARK  196  A    between atoms: _492  and  _495
REMARK  197  A    between atoms: _495  and  _496
REMARK  198  A    between atoms: _496  and  _497
REMARK  199  A    between atoms: _502  and  _504
REMARK  200  A    between atoms: _504  and  _505
REMARK  201  A    between atoms: _508  and  _510
REMARK  202  A    between atoms: _510  and  _511
REMARK  203  A    between atoms: _510  and  _513
REMARK  204  A    between atoms: _513  and  _514
REMARK  205  A    between atoms: _517  and  _519
REMARK  206  A    between atoms: _519  and  _520
REMARK  207  A    between atoms: _519  and  _522
REMARK  208  A    between atoms: _525  and  _527
REMARK  209  A    between atoms: _527  and  _528
REMARK  210  A    between atoms: _531  and  _533
REMARK  211  A    between atoms: _533  and  _534
REMARK  212  A    between atoms: _537  and  _539
REMARK  213  A    between atoms: _539  and  _540
REMARK  214  A    between atoms: _539  and  _542
REMARK  215  A    between atoms: _542  and  _543
REMARK                            x       y       z     vdW  Elec       q    Type
REMARK                         _______ _______ _______ _____ _____    ______ ____
ROOT
ATOM      1  O   HOH     1     -18.089   0.925  -4.470  0.00  0.00    +0.000 OA
ENDROOT
TORSDOF 0
REMARK  Name = ../refined-set-2016/2c92/2c92_pocket.pdb
REMARK  215 active torsions:
REMARK  status: ('A' for Active; 'I' for Inactive)
REMARK    1  A    between atoms: _1  and  _3
REMARK    2  A    between atoms: _3  and  _4
REMARK    3  A    between atoms: _7  and  _9
REMARK    4  A    between atoms: _9  and  _10
REMARK    5  A    between atoms: _9  and  _12
REMARK    6  A    between atoms: _12  and  _13
REMARK    7  A    between atoms: _15  and  _17
REMARK    8  A    between atoms: _17  and  _18
REMARK    9  A    between atoms: _17  and  _20
REMARK   10  A    between atoms: _20  and  _21
REMARK   11  A    between atoms: _23  and  _25
REMARK   12  A    between atoms: _25  and  _26
REMARK   13  A    between atoms: _25  and  _28
REMARK   14  A    between atoms: _28  and  _29
REMARK   15  A    between atoms: _39  and  _41
REMARK   16  A    between atoms: _41  and  _42
REMARK   17  A    between atoms: _41  and  _44
REMARK   18  A    between atoms: _44  and  _45
REMARK   19  A    between atoms: _50  and  _52
REMARK   20  A    between atoms: _52  and  _53
REMARK   21  A    between atoms: _52  and  _55
REMARK   22  A    between atoms: _57  and  _59
REMARK   23  A    between atoms: _59  and  _60
REMARK   24  A    between atoms: _59  and  _62
REMARK   25  A    between atoms: _65  and  _67
REMARK   26  A    between atoms: _67  and  _68
REMARK   27  A    between atoms: _67  and  _70
REMARK   28  A    between atoms: _70  and  _71
REMARK   29  A    between atoms: _74  and  _76
REMARK   30  A    between atoms: _76  and  _77
REMARK   31  A    between atoms: _79  and  _81
REMARK   32  A    between atoms: _81  and  _82
REMARK   33  A    between atoms: _85  and  _87
REMARK   34  A    between atoms: _87  and  _88
REMARK   35  A    between atoms: _87  and  _90
REMARK   36  A    between atoms: _90  and  _91
REMARK   37  A    between atoms: _94  and  _96
REMARK   38  A    between atoms: _96  and  _97
REMARK   39  A    between atoms: _96  and  _99
REMARK   40  A    between atoms: _99  and  _100
REMARK   41  A    between atoms: _100  and  _101
REMARK   42  A    between atoms: _104  and  _106
REMARK   43  A    between atoms: _106  and  _107
REMARK   44  A    between atoms: _106  and  _109
REMARK   45  A    between atoms: _109  and  _110
REMARK   46  A    between atoms: _113  and  _115
REMARK   47  A    between atoms: _115  and  _116
REMARK   48  A    between atoms: _115  and  _118
REMARK   49  A    between atoms: _118  and  _119
REMARK   50  A    between atoms: _122  and  _124
REMARK   51  A    between atoms: _124  and  _125
REMARK   52  A    between atoms: _127  and  _129
REMARK   53  A    between atoms: _129  and  _130
REMARK   54  A    between atoms: _129  and  _132
REMARK   55  A    between atoms: _135  and  _137
REMARK   56  A    between atoms: _137  and  _138
REMARK   57  A    between atoms: _137  and  _140
REMARK   58  A    between atoms: _143  and  _145
REMARK   59  A    between atoms: _145  and  _146
REMARK   60  A    between atoms: _145  and  _148
REMARK   61  A    between atoms: _148  and  _149
REMARK   62  A    between atoms: _152  and  _154
REMARK   63  A    between atoms: _154  and  _155
REMARK   64  A    between atoms: _154  and  _157
REMARK   65  A    between atoms: _157  and  _158
REMARK   66  A    between atoms: _158  and  _159
REMARK   67  A    between atoms: _159  and  _160
REMARK   68  A    between atoms: _169  and  _171
REMARK   69  A    between atoms: _171  and  _172
REMARK   70  A    between atoms: _174  and  _176
REMARK   71  A    between atoms: _176  and  _177
REMARK   72  A    between atoms: _176  and  _179
REMARK   73  A    between atoms: _179  and  _180
REMARK   74  A    between atoms: _180  and  _181
REMARK   75  A    between atoms: _186  and  _188
REMARK   76  A    between atoms: _188  and  _189
REMARK   77  A    between atoms: _188  and  _191
REMARK   78  A    between atoms: _191  and  _192
REMARK   79  A    between atoms: _196  and  _197
REMARK   80  A    between atoms: _202  and  _204
REMARK   81  A    between atoms: _204  and  _205
REMARK   82  A    between atoms: _204  and  _207
REMARK   83  A    between atoms: _207  and  _208
REMARK   84  A    between atoms: _213  and  _215
REMARK   85  A    between atoms: _215  and  _216
REMARK   86  A    between atoms: _215  and  _218
REMARK   87  A    between atoms: _218  and  _219
REMARK   88  A    between atoms: _225  and  _227
REMARK   89  A    between atoms: _227  and  _228
REMARK   90  A    between atoms: _227  and  _230
REMARK   91  A    between atoms: _230  and  _231
REMARK   92  A    between atoms: _234  and  _236
REMARK   93  A    between atoms: _236  and  _237
REMARK   94  A    between atoms: _236  and  _239
REMARK   95  A    between atoms: _239  and  _240
REMARK   96  A    between atoms: _245  and  _246
REMARK   97  A    between atoms: _248  and  _250
REMARK   98  A    between atoms: _250  and  _251
REMARK   99  A    between atoms: _250  and  _253
REMARK  100  A    between atoms: _256  and  _258
REMARK  101  A    between atoms: _258  and  _259
REMARK  102  A    between atoms: _258  and  _261
REMARK  103  A    between atoms: _263  and  _265
REMARK  104  A    between atoms: _265  and  _266
REMARK  105  A    between atoms: _269  and  _271
REMARK  106  A    between atoms: _271  and  _272
REMARK  107  A    between atoms: _271  and  _274
REMARK  108  A    between atoms: _277  and  _279
REMARK  109  A    between atoms: _279  and  _280
REMARK  110  A    between atoms: _279  and  _282
REMARK  111  A    between atoms: _285  and  _287
REMARK  112  A    between atoms: _287  and  _288
REMARK  113  A    between atoms: _287  and  _290
REMARK  114  A    between atoms: _290  and  _291
REMARK  115  A    between atoms: _294  and  _296
REMARK  116  A    between atoms: _296  and  _297
REMARK  117  A    between atoms: _296  and  _299
REMARK  118  A    between atoms: _299  and  _300
REMARK  119  A    between atoms: _303  and  _305
REMARK  120  A    between atoms: _305  and  _306
REMARK  121  A    between atoms: _305  and  _308
REMARK  122  A    between atoms: _311  and  _313
REMARK  123  A    between atoms: _313  and  _314
REMARK  124  A    between atoms: _313  and  _316
REMARK  125  A    between atoms: _319  and  _321
REMARK  126  A    between atoms: _321  and  _322
REMARK  127  A    between atoms: _325  and  _327
REMARK  128  A    between atoms: _327  and  _328
REMARK  129  A    between atoms: _327  and  _330
REMARK  130  A    between atoms: _330  and  _331
REMARK  131  A    between atoms: _335  and  _336
REMARK  132  A    between atoms: _341  and  _343
REMARK  133  A    between atoms: _343  and  _344
REMARK  134  A    between atoms: _343  and  _346
REMARK  135  A    between atoms: _346  and  _347
REMARK  136  A    between atoms: _350  and  _352
REMARK  137  A    between atoms: _352  and  _353
REMARK  138  A    between atoms: _356  and  _358
REMARK  139  A    between atoms: _358  and  _359
REMARK  140  A    between atoms: _358  and  _361
REMARK  141  A    between atoms: _361  and  _362
REMARK  142  A    between atoms: _367  and  _369
REMARK  143  A    between atoms: _369  and  _370
REMARK  144  A    between atoms: _372  and  _374
REMARK  145  A    between atoms: _374  and  _375
REMARK  146  A    between atoms: _374  and  _377
REMARK  147  A    between atoms: _380  and  _382
REMARK  148  A    between atoms: _382  and  _383
REMARK  149  A    between atoms: _382  and  _385
REMARK  150  A    between atoms: _385  and  _386
REMARK  151  A    between atoms: _389  and  _391
REMARK  152  A    between atoms: _391  and  _392
REMARK  153  A    between atoms: _391  and  _394
REMARK  154  A    between atoms: _394  and  _395
REMARK  155  A    between atoms: _398  and  _400
REMARK  156  A    between atoms: _400  and  _401
REMARK  157  A    between atoms: _400  and  _403
REMARK  158  A    between atoms: _403  and  _404
REMARK  159  A    between atoms: _407  and  _409
REMARK  160  A    between atoms: _409  and  _410
REMARK  161  A    between atoms: _409  and  _412
REMARK  162  A    between atoms: _412  and  _413
REMARK  163  A    between atoms: _418  and  _420
REMARK  164  A    between atoms: _420  and  _421
REMARK  165  A    between atoms: _420  and  _423
REMARK  166  A    between atoms: _423  and  _424
REMARK  167  A    between atoms: _424  and  _425
REMARK  168  A    between atoms: _430  and  _432
REMARK  169  A    between atoms: _432  and  _433
REMARK  170  A    between atoms: _432  and  _435
REMARK  171  A    between atoms: _435  and  _436
REMARK  172  A    between atoms: _439  and  _441
REMARK  173  A    between atoms: _441  and  _442
REMARK  174  A    between atoms: _441  and  _444
REMARK  175  A    between atoms: _444  and  _445
REMARK  176  A    between atoms: _445  and  _446
REMARK  177  A    between atoms: _446  and  _447
REMARK  178  A    between atoms: _456  and  _458
REMARK  179  A    between atoms: _458  and  _459
REMARK  180  A    between atoms: _458  and  _461
REMARK  181  A    between atoms: _461  and  _462
REMARK  182  A    between atoms: _462  and  _463
REMARK  183  A    between atoms: _466  and  _468
REMARK  184  A    between atoms: _468  and  _469
REMARK  185  A    between atoms: _468  and  _471
REMARK  186  A    between atoms: _471  and  _472
REMARK  187  A    between atoms: _472  and  _473
REMARK  188  A    between atoms: _473  and  _474
REMARK  189  A    between atoms: _474  and  _475
REMARK  190  A    between atoms: _479  and  _481
REMARK  191  A    between atoms: _481  and  _482
REMARK  192  A    between atoms: _484  and  _486
REMARK  193  A    between atoms: _486  and  _487
REMARK  194  A    between atoms: _490  and  _492
REMARK  195  A    between atoms: _492  and  _493
REMARK  196  A    between atoms: _492  and  _495
REMARK  197  A    between atoms: _495  and  _496
REMARK  198  A    between atoms: _496  and  _497
REMARK  199  A    between atoms: _502  and  _504
REMARK  200  A    between atoms: _504  and  _505
REMARK  201  A    between atoms: _508  and  _510
REMARK  202  A    between atoms: _510  and  _511
REMARK  203  A    between atoms: _510  and  _513
REMARK  204  A    between atoms: _513  and  _514
REMARK  205  A    between atoms: _517  and  _519
REMARK  206  A    between atoms: _519  and  _520
REMARK  207  A    between atoms: _519  and  _522
REMARK  208  A    between atoms: _525  and  _527
REMARK  209  A    between atoms: _527  and  _528
REMARK  210  A    between atoms: _531  and  _533
REMARK  211  A    between atoms: _533  and  _534
REMARK  212  A    between atoms: _537  and  _539
REMARK  213  A    between atoms: _539  and  _540
REMARK  214  A    between atoms: _539  and  _542
REMARK  215  A    between atoms: _542  and  _543
REMARK                            x       y       z     vdW  Elec       q    Type
REMARK                         _______ _______ _______ _____ _____    ______ ____
ROOT
ATOM      1  O   HOH     1     -12.635   6.114  -5.970  0.00  0.00    +0.000 OA
ENDROOT
TORSDOF 0
REMARK  Name = ../refined-set-2016/2c92/2c92_pocket.pdb
REMARK  215 active torsions:
REMARK  status: ('A' for Active; 'I' for Inactive)
REMARK    1  A    between atoms: _1  and  _3
REMARK    2  A    between atoms: _3  and  _4
REMARK    3  A    between atoms: _7  and  _9
REMARK    4  A    between atoms: _9  and  _10
REMARK    5  A    between atoms: _9  and  _12
REMARK    6  A    between atoms: _12  and  _13
REMARK    7  A    between atoms: _15  and  _17
REMARK    8  A    between atoms: _17  and  _18
REMARK    9  A    between atoms: _17  and  _20
REMARK   10  A    between atoms: _20  and  _21
REMARK   11  A    between atoms: _23  and  _25
REMARK   12  A    between atoms: _25  and  _26
REMARK   13  A    between atoms: _25  and  _28
REMARK   14  A    between atoms: _28  and  _29
REMARK   15  A    between atoms: _39  and  _41
REMARK   16  A    between atoms: _41  and  _42
REMARK   17  A    between atoms: _41  and  _44
REMARK   18  A    between atoms: _44  and  _45
REMARK   19  A    between atoms: _50  and  _52
REMARK   20  A    between atoms: _52  and  _53
REMARK   21  A    between atoms: _52  and  _55
REMARK   22  A    between atoms: _57  and  _59
REMARK   23  A    between atoms: _59  and  _60
REMARK   24  A    between atoms: _59  and  _62
REMARK   25  A    between atoms: _65  and  _67
REMARK   26  A    between atoms: _67  and  _68
REMARK   27  A    between atoms: _67  and  _70
REMARK   28  A    between atoms: _70  and  _71
REMARK   29  A    between atoms: _74  and  _76
REMARK   30  A    between atoms: _76  and  _77
REMARK   31  A    between atoms: _79  and  _81
REMARK   32  A    between atoms: _81  and  _82
REMARK   33  A    between atoms: _85  and  _87
REMARK   34  A    between atoms: _87  and  _88
REMARK   35  A    between atoms: _87  and  _90
REMARK   36  A    between atoms: _90  and  _91
REMARK   37  A    between atoms: _94  and  _96
REMARK   38  A    between atoms: _96  and  _97
REMARK   39  A    between atoms: _96  and  _99
REMARK   40  A    between atoms: _99  and  _100
REMARK   41  A    between atoms: _100  and  _101
REMARK   42  A    between atoms: _104  and  _106
REMARK   43  A    between atoms: _106  and  _107
REMARK   44  A    between atoms: _106  and  _109
REMARK   45  A    between atoms: _109  and  _110
REMARK   46  A    between atoms: _113  and  _115
REMARK   47  A    between atoms: _115  and  _116
REMARK   48  A    between atoms: _115  and  _118
REMARK   49  A    between atoms: _118  and  _119
REMARK   50  A    between atoms: _122  and  _124
REMARK   51  A    between atoms: _124  and  _125
REMARK   52  A    between atoms: _127  and  _129
REMARK   53  A    between atoms: _129  and  _130
REMARK   54  A    between atoms: _129  and  _132
REMARK   55  A    between atoms: _135  and  _137
REMARK   56  A    between atoms: _137  and  _138
REMARK   57  A    between atoms: _137  and  _140
REMARK   58  A    between atoms: _143  and  _145
REMARK   59  A    between atoms: _145  and  _146
REMARK   60  A    between atoms: _145  and  _148
REMARK   61  A    between atoms: _148  and  _149
REMARK   62  A    between atoms: _152  and  _154
REMARK   63  A    between atoms: _154  and  _155
REMARK   64  A    between atoms: _154  and  _157
REMARK   65  A    between atoms: _157  and  _158
REMARK   66  A    between atoms: _158  and  _159
REMARK   67  A    between atoms: _159  and  _160
REMARK   68  A    between atoms: _169  and  _171
REMARK   69  A    between atoms: _171  and  _172
REMARK   70  A    between atoms: _174  and  _176
REMARK   71  A    between atoms: _176  and  _177
REMARK   72  A    between atoms: _176  and  _179
REMARK   73  A    between atoms: _179  and  _180
REMARK   74  A    between atoms: _180  and  _181
REMARK   75  A    between atoms: _186  and  _188
REMARK   76  A    between atoms: _188  and  _189
REMARK   77  A    between atoms: _188  and  _191
REMARK   78  A    between atoms: _191  and  _192
REMARK   79  A    between atoms: _196  and  _197
REMARK   80  A    between atoms: _202  and  _204
REMARK   81  A    between atoms: _204  and  _205
REMARK   82  A    between atoms: _204  and  _207
REMARK   83  A    between atoms: _207  and  _208
REMARK   84  A    between atoms: _213  and  _215
REMARK   85  A    between atoms: _215  and  _216
REMARK   86  A    between atoms: _215  and  _218
REMARK   87  A    between atoms: _218  and  _219
REMARK   88  A    between atoms: _225  and  _227
REMARK   89  A    between atoms: _227  and  _228
REMARK   90  A    between atoms: _227  and  _230
REMARK   91  A    between atoms: _230  and  _231
REMARK   92  A    between atoms: _234  and  _236
REMARK   93  A    between atoms: _236  and  _237
REMARK   94  A    between atoms: _236  and  _239
REMARK   95  A    between atoms: _239  and  _240
REMARK   96  A    between atoms: _245  and  _246
REMARK   97  A    between atoms: _248  and  _250
REMARK   98  A    between atoms: _250  and  _251
REMARK   99  A    between atoms: _250  and  _253
REMARK  100  A    between atoms: _256  and  _258
REMARK  101  A    between atoms: _258  and  _259
REMARK  102  A    between atoms: _258  and  _261
REMARK  103  A    between atoms: _263  and  _265
REMARK  104  A    between atoms: _265  and  _266
REMARK  105  A    between atoms: _269  and  _271
REMARK  106  A    between atoms: _271  and  _272
REMARK  107  A    between atoms: _271  and  _274
REMARK  108  A    between atoms: _277  and  _279
REMARK  109  A    between atoms: _279  and  _280
REMARK  110  A    between atoms: _279  and  _282
REMARK  111  A    between atoms: _285  and  _287
REMARK  112  A    between atoms: _287  and  _288
REMARK  113  A    between atoms: _287  and  _290
REMARK  114  A    between atoms: _290  and  _291
REMARK  115  A    between atoms: _294  and  _296
REMARK  116  A    between atoms: _296  and  _297
REMARK  117  A    between atoms: _296  and  _299
REMARK  118  A    between atoms: _299  and  _300
REMARK  119  A    between atoms: _303  and  _305
REMARK  120  A    between atoms: _305  and  _306
REMARK  121  A    between atoms: _305  and  _308
REMARK  122  A    between atoms: _311  and  _313
REMARK  123  A    between atoms: _313  and  _314
REMARK  124  A    between atoms: _313  and  _316
REMARK  125  A    between atoms: _319  and  _321
REMARK  126  A    between atoms: _321  and  _322
REMARK  127  A    between atoms: _325  and  _327
REMARK  128  A    between atoms: _327  and  _328
REMARK  129  A    between atoms: _327  and  _330
REMARK  130  A    between atoms: _330  and  _331
REMARK  131  A    between atoms: _335  and  _336
REMARK  132  A    between atoms: _341  and  _343
REMARK  133  A    between atoms: _343  and  _344
REMARK  134  A    between atoms: _343  and  _346
REMARK  135  A    between atoms: _346  and  _347
REMARK  136  A    between atoms: _350  and  _352
REMARK  137  A    between atoms: _352  and  _353
REMARK  138  A    between atoms: _356  and  _358
REMARK  139  A    between atoms: _358  and  _359
REMARK  140  A    between atoms: _358  and  _361
REMARK  141  A    between atoms: _361  and  _362
REMARK  142  A    between atoms: _367  and  _369
REMARK  143  A    between atoms: _369  and  _370
REMARK  144  A    between atoms: _372  and  _374
REMARK  145  A    between atoms: _374  and  _375
REMARK  146  A    between atoms: _374  and  _377
REMARK  147  A    between atoms: _380  and  _382
REMARK  148  A    between atoms: _382  and  _383
REMARK  149  A    between atoms: _382  and  _385
REMARK  150  A    between atoms: _385  and  _386
REMARK  151  A    between atoms: _389  and  _391
REMARK  152  A    between atoms: _391  and  _392
REMARK  153  A    between atoms: _391  and  _394
REMARK  154  A    between atoms: _394  and  _395
REMARK  155  A    between atoms: _398  and  _400
REMARK  156  A    between atoms: _400  and  _401
REMARK  157  A    between atoms: _400  and  _403
REMARK  158  A    between atoms: _403  and  _404
REMARK  159  A    between atoms: _407  and  _409
REMARK  160  A    between atoms: _409  and  _410
REMARK  161  A    between atoms: _409  and  _412
REMARK  162  A    between atoms: _412  and  _413
REMARK  163  A    between atoms: _418  and  _420
REMARK  164  A    between atoms: _420  and  _421
REMARK  165  A    between atoms: _420  and  _423
REMARK  166  A    between atoms: _423  and  _424
REMARK  167  A    between atoms: _424  and  _425
REMARK  168  A    between atoms: _430  and  _432
REMARK  169  A    between atoms: _432  and  _433
REMARK  170  A    between atoms: _432  and  _435
REMARK  171  A    between atoms: _435  and  _436
REMARK  172  A    between atoms: _439  and  _441
REMARK  173  A    between atoms: _441  and  _442
REMARK  174  A    between atoms: _441  and  _444
REMARK  175  A    between atoms: _444  and  _445
REMARK  176  A    between atoms: _445  and  _446
REMARK  177  A    between atoms: _446  and  _447
REMARK  178  A    between atoms: _456  and  _458
REMARK  179  A    between atoms: _458  and  _459
REMARK  180  A    between atoms: _458  and  _461
REMARK  181  A    between atoms: _461  and  _462
REMARK  182  A    between atoms: _462  and  _463
REMARK  183  A    between atoms: _466  and  _468
REMARK  184  A    between atoms: _468  and  _469
REMARK  185  A    between atoms: _468  and  _471
REMARK  186  A    between atoms: _471  and  _472
REMARK  187  A    between atoms: _472  and  _473
REMARK  188  A    between atoms: _473  and  _474
REMARK  189  A    between atoms: _474  and  _475
REMARK  190  A    between atoms: _479  and  _481
REMARK  191  A    between atoms: _481  and  _482
REMARK  192  A    between atoms: _484  and  _486
REMARK  193  A    between atoms: _486  and  _487
REMARK  194  A    between atoms: _490  and  _492
REMARK  195  A    between atoms: _492  and  _493
REMARK  196  A    between atoms: _492  and  _495
REMARK  197  A    between atoms: _495  and  _496
REMARK  198  A    between atoms: _496  and  _497
REMARK  199  A    between atoms: _502  and  _504
REMARK  200  A    between atoms: _504  and  _505
REMARK  201  A    between atoms: _508  and  _510
REMARK  202  A    between atoms: _510  and  _511
REMARK  203  A    between atoms: _510  and  _513
REMARK  204  A    between atoms: _513  and  _514
REMARK  205  A    between atoms: _517  and  _519
REMARK  206  A    between atoms: _519  and  _520
REMARK  207  A    between atoms: _519  and  _522
REMARK  208  A    between atoms: _525  and  _527
REMARK  209  A    between atoms: _527  and  _528
REMARK  210  A    between atoms: _531  and  _533
REMARK  211  A    between atoms: _533  and  _534
REMARK  212  A    between atoms: _537  and  _539
REMARK  213  A    between atoms: _539  and  _540
REMARK  214  A    between atoms: _539  and  _542
REMARK  215  A    between atoms: _542  and  _543
REMARK                            x       y       z     vdW  Elec       q    Type
REMARK                         _______ _______ _______ _____ _____    ______ ____
ROOT
ATOM      1  O   HOH     1     -22.274   4.212   3.610  0.00  0.00    +0.000 OA
ENDROOT
TORSDOF 0
REMARK  Name = ../refined-set-2016/2c92/2c92_pocket.pdb
REMARK  215 active torsions:
REMARK  status: ('A' for Active; 'I' for Inactive)
REMARK    1  A    between atoms: _1  and  _3
REMARK    2  A    between atoms: _3  and  _4
REMARK    3  A    between atoms: _7  and  _9
REMARK    4  A    between atoms: _9  and  _10
REMARK    5  A    between atoms: _9  and  _12
REMARK    6  A    between atoms: _12  and  _13
REMARK    7  A    between atoms: _15  and  _17
REMARK    8  A    between atoms: _17  and  _18
REMARK    9  A    between atoms: _17  and  _20
REMARK   10  A    between atoms: _20  and  _21
REMARK   11  A    between atoms: _23  and  _25
REMARK   12  A    between atoms: _25  and  _26
REMARK   13  A    between atoms: _25  and  _28
REMARK   14  A    between atoms: _28  and  _29
REMARK   15  A    between atoms: _39  and  _41
REMARK   16  A    between atoms: _41  and  _42
REMARK   17  A    between atoms: _41  and  _44
REMARK   18  A    between atoms: _44  and  _45
REMARK   19  A    between atoms: _50  and  _52
REMARK   20  A    between atoms: _52  and  _53
REMARK   21  A    between atoms: _52  and  _55
REMARK   22  A    between atoms: _57  and  _59
REMARK   23  A    between atoms: _59  and  _60
REMARK   24  A    between atoms: _59  and  _62
REMARK   25  A    between atoms: _65  and  _67
REMARK   26  A    between atoms: _67  and  _68
REMARK   27  A    between atoms: _67  and  _70
REMARK   28  A    between atoms: _70  and  _71
REMARK   29  A    between atoms: _74  and  _76
REMARK   30  A    between atoms: _76  and  _77
REMARK   31  A    between atoms: _79  and  _81
REMARK   32  A    between atoms: _81  and  _82
REMARK   33  A    between atoms: _85  and  _87
REMARK   34  A    between atoms: _87  and  _88
REMARK   35  A    between atoms: _87  and  _90
REMARK   36  A    between atoms: _90  and  _91
REMARK   37  A    between atoms: _94  and  _96
REMARK   38  A    between atoms: _96  and  _97
REMARK   39  A    between atoms: _96  and  _99
REMARK   40  A    between atoms: _99  and  _100
REMARK   41  A    between atoms: _100  and  _101
REMARK   42  A    between atoms: _104  and  _106
REMARK   43  A    between atoms: _106  and  _107
REMARK   44  A    between atoms: _106  and  _109
REMARK   45  A    between atoms: _109  and  _110
REMARK   46  A    between atoms: _113  and  _115
REMARK   47  A    between atoms: _115  and  _116
REMARK   48  A    between atoms: _115  and  _118
REMARK   49  A    between atoms: _118  and  _119
REMARK   50  A    between atoms: _122  and  _124
REMARK   51  A    between atoms: _124  and  _125
REMARK   52  A    between atoms: _127  and  _129
REMARK   53  A    between atoms: _129  and  _130
REMARK   54  A    between atoms: _129  and  _132
REMARK   55  A    between atoms: _135  and  _137
REMARK   56  A    between atoms: _137  and  _138
REMARK   57  A    between atoms: _137  and  _140
REMARK   58  A    between atoms: _143  and  _145
REMARK   59  A    between atoms: _145  and  _146
REMARK   60  A    between atoms: _145  and  _148
REMARK   61  A    between atoms: _148  and  _149
REMARK   62  A    between atoms: _152  and  _154
REMARK   63  A    between atoms: _154  and  _155
REMARK   64  A    between atoms: _154  and  _157
REMARK   65  A    between atoms: _157  and  _158
REMARK   66  A    between atoms: _158  and  _159
REMARK   67  A    between atoms: _159  and  _160
REMARK   68  A    between atoms: _169  and  _171
REMARK   69  A    between atoms: _171  and  _172
REMARK   70  A    between atoms: _174  and  _176
REMARK   71  A    between atoms: _176  and  _177
REMARK   72  A    between atoms: _176  and  _179
REMARK   73  A    between atoms: _179  and  _180
REMARK   74  A    between atoms: _180  and  _181
REMARK   75  A    between atoms: _186  and  _188
REMARK   76  A    between atoms: _188  and  _189
REMARK   77  A    between atoms: _188  and  _191
REMARK   78  A    between atoms: _191  and  _192
REMARK   79  A    between atoms: _196  and  _197
REMARK   80  A    between atoms: _202  and  _204
REMARK   81  A    between atoms: _204  and  _205
REMARK   82  A    between atoms: _204  and  _207
REMARK   83  A    between atoms: _207  and  _208
REMARK   84  A    between atoms: _213  and  _215
REMARK   85  A    between atoms: _215  and  _216
REMARK   86  A    between atoms: _215  and  _218
REMARK   87  A    between atoms: _218  and  _219
REMARK   88  A    between atoms: _225  and  _227
REMARK   89  A    between atoms: _227  and  _228
REMARK   90  A    between atoms: _227  and  _230
REMARK   91  A    between atoms: _230  and  _231
REMARK   92  A    between atoms: _234  and  _236
REMARK   93  A    between atoms: _236  and  _237
REMARK   94  A    between atoms: _236  and  _239
REMARK   95  A    between atoms: _239  and  _240
REMARK   96  A    between atoms: _245  and  _246
REMARK   97  A    between atoms: _248  and  _250
REMARK   98  A    between atoms: _250  and  _251
REMARK   99  A    between atoms: _250  and  _253
REMARK  100  A    between atoms: _256  and  _258
REMARK  101  A    between atoms: _258  and  _259
REMARK  102  A    between atoms: _258  and  _261
REMARK  103  A    between atoms: _263  and  _265
REMARK  104  A    between atoms: _265  and  _266
REMARK  105  A    between atoms: _269  and  _271
REMARK  106  A    between atoms: _271  and  _272
REMARK  107  A    between atoms: _271  and  _274
REMARK  108  A    between atoms: _277  and  _279
REMARK  109  A    between atoms: _279  and  _280
REMARK  110  A    between atoms: _279  and  _282
REMARK  111  A    between atoms: _285  and  _287
REMARK  112  A    between atoms: _287  and  _288
REMARK  113  A    between atoms: _287  and  _290
REMARK  114  A    between atoms: _290  and  _291
REMARK  115  A    between atoms: _294  and  _296
REMARK  116  A    between atoms: _296  and  _297
REMARK  117  A    between atoms: _296  and  _299
REMARK  118  A    between atoms: _299  and  _300
REMARK  119  A    between atoms: _303  and  _305
REMARK  120  A    between atoms: _305  and  _306
REMARK  121  A    between atoms: _305  and  _308
REMARK  122  A    between atoms: _311  and  _313
REMARK  123  A    between atoms: _313  and  _314
REMARK  124  A    between atoms: _313  and  _316
REMARK  125  A    between atoms: _319  and  _321
REMARK  126  A    between atoms: _321  and  _322
REMARK  127  A    between atoms: _325  and  _327
REMARK  128  A    between atoms: _327  and  _328
REMARK  129  A    between atoms: _327  and  _330
REMARK  130  A    between atoms: _330  and  _331
REMARK  131  A    between atoms: _335  and  _336
REMARK  132  A    between atoms: _341  and  _343
REMARK  133  A    between atoms: _343  and  _344
REMARK  134  A    between atoms: _343  and  _346
REMARK  135  A    between atoms: _346  and  _347
REMARK  136  A    between atoms: _350  and  _352
REMARK  137  A    between atoms: _352  and  _353
REMARK  138  A    between atoms: _356  and  _358
REMARK  139  A    between atoms: _358  and  _359
REMARK  140  A    between atoms: _358  and  _361
REMARK  141  A    between atoms: _361  and  _362
REMARK  142  A    between atoms: _367  and  _369
REMARK  143  A    between atoms: _369  and  _370
REMARK  144  A    between atoms: _372  and  _374
REMARK  145  A    between atoms: _374  and  _375
REMARK  146  A    between atoms: _374  and  _377
REMARK  147  A    between atoms: _380  and  _382
REMARK  148  A    between atoms: _382  and  _383
REMARK  149  A    between atoms: _382  and  _385
REMARK  150  A    between atoms: _385  and  _386
REMARK  151  A    between atoms: _389  and  _391
REMARK  152  A    between atoms: _391  and  _392
REMARK  153  A    between atoms: _391  and  _394
REMARK  154  A    between atoms: _394  and  _395
REMARK  155  A    between atoms: _398  and  _400
REMARK  156  A    between atoms: _400  and  _401
REMARK  157  A    between atoms: _400  and  _403
REMARK  158  A    between atoms: _403  and  _404
REMARK  159  A    between atoms: _407  and  _409
REMARK  160  A    between atoms: _409  and  _410
REMARK  161  A    between atoms: _409  and  _412
REMARK  162  A    between atoms: _412  and  _413
REMARK  163  A    between atoms: _418  and  _420
REMARK  164  A    between atoms: _420  and  _421
REMARK  165  A    between atoms: _420  and  _423
REMARK  166  A    between atoms: _423  and  _424
REMARK  167  A    between atoms: _424  and  _425
REMARK  168  A    between atoms: _430  and  _432
REMARK  169  A    between atoms: _432  and  _433
REMARK  170  A    between atoms: _432  and  _435
REMARK  171  A    between atoms: _435  and  _436
REMARK  172  A    between atoms: _439  and  _441
REMARK  173  A    between atoms: _441  and  _442
REMARK  174  A    between atoms: _441  and  _444
REMARK  175  A    between atoms: _444  and  _445
REMARK  176  A    between atoms: _445  and  _446
REMARK  177  A    between atoms: _446  and  _447
REMARK  178  A    between atoms: _456  and  _458
REMARK  179  A    between atoms: _458  and  _459
REMARK  180  A    between atoms: _458  and  _461
REMARK  181  A    between atoms: _461  and  _462
REMARK  182  A    between atoms: _462  and  _463
REMARK  183  A    between atoms: _466  and  _468
REMARK  184  A    between atoms: _468  and  _469
REMARK  185  A    between atoms: _468  and  _471
REMARK  186  A    between atoms: _471  and  _472
REMARK  187  A    between atoms: _472  and  _473
REMARK  188  A    between atoms: _473  and  _474
REMARK  189  A    between atoms: _474  and  _475
REMARK  190  A    between atoms: _479  and  _481
REMARK  191  A    between atoms: _481  and  _482
REMARK  192  A    between atoms: _484  and  _486
REMARK  193  A    between atoms: _486  and  _487
REMARK  194  A    between atoms: _490  and  _492
REMARK  195  A    between atoms: _492  and  _493
REMARK  196  A    between atoms: _492  and  _495
REMARK  197  A    between atoms: _495  and  _496
REMARK  198  A    between atoms: _496  and  _497
REMARK  199  A    between atoms: _502  and  _504
REMARK  200  A    between atoms: _504  and  _505
REMARK  201  A    between atoms: _508  and  _510
REMARK  202  A    between atoms: _510  and  _511
REMARK  203  A    between atoms: _510  and  _513
REMARK  204  A    between atoms: _513  and  _514
REMARK  205  A    between atoms: _517  and  _519
REMARK  206  A    between atoms: _519  and  _520
REMARK  207  A    between atoms: _519  and  _522
REMARK  208  A    between atoms: _525  and  _527
REMARK  209  A    between atoms: _527  and  _528
REMARK  210  A    between atoms: _531  and  _533
REMARK  211  A    between atoms: _533  and  _534
REMARK  212  A    between atoms: _537  and  _539
REMARK  213  A    between atoms: _539  and  _540
REMARK  214  A    between atoms: _539  and  _542
REMARK  215  A    between atoms: _542  and  _543
REMARK                            x       y       z     vdW  Elec       q    Type
REMARK                         _______ _______ _______ _____ _____    ______ ____
ROOT
ATOM      1  O   HOH     1     -26.045  -6.087   5.944  0.00  0.00    +0.000 OA
ENDROOT
TORSDOF 0
REMARK  Name = ../refined-set-2016/2c92/2c92_pocket.pdb
REMARK  215 active torsions:
REMARK  status: ('A' for Active; 'I' for Inactive)
REMARK    1  A    between atoms: _1  and  _3
REMARK    2  A    between atoms: _3  and  _4
REMARK    3  A    between atoms: _7  and  _9
REMARK    4  A    between atoms: _9  and  _10
REMARK    5  A    between atoms: _9  and  _12
REMARK    6  A    between atoms: _12  and  _13
REMARK    7  A    between atoms: _15  and  _17
REMARK    8  A    between atoms: _17  and  _18
REMARK    9  A    between atoms: _17  and  _20
REMARK   10  A    between atoms: _20  and  _21
REMARK   11  A    between atoms: _23  and  _25
REMARK   12  A    between atoms: _25  and  _26
REMARK   13  A    between atoms: _25  and  _28
REMARK   14  A    between atoms: _28  and  _29
REMARK   15  A    between atoms: _39  and  _41
REMARK   16  A    between atoms: _41  and  _42
REMARK   17  A    between atoms: _41  and  _44
REMARK   18  A    between atoms: _44  and  _45
REMARK   19  A    between atoms: _50  and  _52
REMARK   20  A    between atoms: _52  and  _53
REMARK   21  A    between atoms: _52  and  _55
REMARK   22  A    between atoms: _57  and  _59
REMARK   23  A    between atoms: _59  and  _60
REMARK   24  A    between atoms: _59  and  _62
REMARK   25  A    between atoms: _65  and  _67
REMARK   26  A    between atoms: _67  and  _68
REMARK   27  A    between atoms: _67  and  _70
REMARK   28  A    between atoms: _70  and  _71
REMARK   29  A    between atoms: _74  and  _76
REMARK   30  A    between atoms: _76  and  _77
REMARK   31  A    between atoms: _79  and  _81
REMARK   32  A    between atoms: _81  and  _82
REMARK   33  A    between atoms: _85  and  _87
REMARK   34  A    between atoms: _87  and  _88
REMARK   35  A    between atoms: _87  and  _90
REMARK   36  A    between atoms: _90  and  _91
REMARK   37  A    between atoms: _94  and  _96
REMARK   38  A    between atoms: _96  and  _97
REMARK   39  A    between atoms: _96  and  _99
REMARK   40  A    between atoms: _99  and  _100
REMARK   41  A    between atoms: _100  and  _101
REMARK   42  A    between atoms: _104  and  _106
REMARK   43  A    between atoms: _106  and  _107
REMARK   44  A    between atoms: _106  and  _109
REMARK   45  A    between atoms: _109  and  _110
REMARK   46  A    between atoms: _113  and  _115
REMARK   47  A    between atoms: _115  and  _116
REMARK   48  A    between atoms: _115  and  _118
REMARK   49  A    between atoms: _118  and  _119
REMARK   50  A    between atoms: _122  and  _124
REMARK   51  A    between atoms: _124  and  _125
REMARK   52  A    between atoms: _127  and  _129
REMARK   53  A    between atoms: _129  and  _130
REMARK   54  A    between atoms: _129  and  _132
REMARK   55  A    between atoms: _135  and  _137
REMARK   56  A    between atoms: _137  and  _138
REMARK   57  A    between atoms: _137  and  _140
REMARK   58  A    between atoms: _143  and  _145
REMARK   59  A    between atoms: _145  and  _146
REMARK   60  A    between atoms: _145  and  _148
REMARK   61  A    between atoms: _148  and  _149
REMARK   62  A    between atoms: _152  and  _154
REMARK   63  A    between atoms: _154  and  _155
REMARK   64  A    between atoms: _154  and  _157
REMARK   65  A    between atoms: _157  and  _158
REMARK   66  A    between atoms: _158  and  _159
REMARK   67  A    between atoms: _159  and  _160
REMARK   68  A    between atoms: _169  and  _171
REMARK   69  A    between atoms: _171  and  _172
REMARK   70  A    between atoms: _174  and  _176
REMARK   71  A    between atoms: _176  and  _177
REMARK   72  A    between atoms: _176  and  _179
REMARK   73  A    between atoms: _179  and  _180
REMARK   74  A    between atoms: _180  and  _181
REMARK   75  A    between atoms: _186  and  _188
REMARK   76  A    between atoms: _188  and  _189
REMARK   77  A    between atoms: _188  and  _191
REMARK   78  A    between atoms: _191  and  _192
REMARK   79  A    between atoms: _196  and  _197
REMARK   80  A    between atoms: _202  and  _204
REMARK   81  A    between atoms: _204  and  _205
REMARK   82  A    between atoms: _204  and  _207
REMARK   83  A    between atoms: _207  and  _208
REMARK   84  A    between atoms: _213  and  _215
REMARK   85  A    between atoms: _215  and  _216
REMARK   86  A    between atoms: _215  and  _218
REMARK   87  A    between atoms: _218  and  _219
REMARK   88  A    between atoms: _225  and  _227
REMARK   89  A    between atoms: _227  and  _228
REMARK   90  A    between atoms: _227  and  _230
REMARK   91  A    between atoms: _230  and  _231
REMARK   92  A    between atoms: _234  and  _236
REMARK   93  A    between atoms: _236  and  _237
REMARK   94  A    between atoms: _236  and  _239
REMARK   95  A    between atoms: _239  and  _240
REMARK   96  A    between atoms: _245  and  _246
REMARK   97  A    between atoms: _248  and  _250
REMARK   98  A    between atoms: _250  and  _251
REMARK   99  A    between atoms: _250  and  _253
REMARK  100  A    between atoms: _256  and  _258
REMARK  101  A    between atoms: _258  and  _259
REMARK  102  A    between atoms: _258  and  _261
REMARK  103  A    between atoms: _263  and  _265
REMARK  104  A    between atoms: _265  and  _266
REMARK  105  A    between atoms: _269  and  _271
REMARK  106  A    between atoms: _271  and  _272
REMARK  107  A    between atoms: _271  and  _274
REMARK  108  A    between atoms: _277  and  _279
REMARK  109  A    between atoms: _279  and  _280
REMARK  110  A    between atoms: _279  and  _282
REMARK  111  A    between atoms: _285  and  _287
REMARK  112  A    between atoms: _287  and  _288
REMARK  113  A    between atoms: _287  and  _290
REMARK  114  A    between atoms: _290  and  _291
REMARK  115  A    between atoms: _294  and  _296
REMARK  116  A    between atoms: _296  and  _297
REMARK  117  A    between atoms: _296  and  _299
REMARK  118  A    between atoms: _299  and  _300
REMARK  119  A    between atoms: _303  and  _305
REMARK  120  A    between atoms: _305  and  _306
REMARK  121  A    between atoms: _305  and  _308
REMARK  122  A    between atoms: _311  and  _313
REMARK  123  A    between atoms: _313  and  _314
REMARK  124  A    between atoms: _313  and  _316
REMARK  125  A    between atoms: _319  and  _321
REMARK  126  A    between atoms: _321  and  _322
REMARK  127  A    between atoms: _325  and  _327
REMARK  128  A    between atoms: _327  and  _328
REMARK  129  A    between atoms: _327  and  _330
REMARK  130  A    between atoms: _330  and  _331
REMARK  131  A    between atoms: _335  and  _336
REMARK  132  A    between atoms: _341  and  _343
REMARK  133  A    between atoms: _343  and  _344
REMARK  134  A    between atoms: _343  and  _346
REMARK  135  A    between atoms: _346  and  _347
REMARK  136  A    between atoms: _350  and  _352
REMARK  137  A    between atoms: _352  and  _353
REMARK  138  A    between atoms: _356  and  _358
REMARK  139  A    between atoms: _358  and  _359
REMARK  140  A    between atoms: _358  and  _361
REMARK  141  A    between atoms: _361  and  _362
REMARK  142  A    between atoms: _367  and  _369
REMARK  143  A    between atoms: _369  and  _370
REMARK  144  A    between atoms: _372  and  _374
REMARK  145  A    between atoms: _374  and  _375
REMARK  146  A    between atoms: _374  and  _377
REMARK  147  A    between atoms: _380  and  _382
REMARK  148  A    between atoms: _382  and  _383
REMARK  149  A    between atoms: _382  and  _385
REMARK  150  A    between atoms: _385  and  _386
REMARK  151  A    between atoms: _389  and  _391
REMARK  152  A    between atoms: _391  and  _392
REMARK  153  A    between atoms: _391  and  _394
REMARK  154  A    between atoms: _394  and  _395
REMARK  155  A    between atoms: _398  and  _400
REMARK  156  A    between atoms: _400  and  _401
REMARK  157  A    between atoms: _400  and  _403
REMARK  158  A    between atoms: _403  and  _404
REMARK  159  A    between atoms: _407  and  _409
REMARK  160  A    between atoms: _409  and  _410
REMARK  161  A    between atoms: _409  and  _412
REMARK  162  A    between atoms: _412  and  _413
REMARK  163  A    between atoms: _418  and  _420
REMARK  164  A    between atoms: _420  and  _421
REMARK  165  A    between atoms: _420  and  _423
REMARK  166  A    between atoms: _423  and  _424
REMARK  167  A    between atoms: _424  and  _425
REMARK  168  A    between atoms: _430  and  _432
REMARK  169  A    between atoms: _432  and  _433
REMARK  170  A    between atoms: _432  and  _435
REMARK  171  A    between atoms: _435  and  _436
REMARK  172  A    between atoms: _439  and  _441
REMARK  173  A    between atoms: _441  and  _442
REMARK  174  A    between atoms: _441  and  _444
REMARK  175  A    between atoms: _444  and  _445
REMARK  176  A    between atoms: _445  and  _446
REMARK  177  A    between atoms: _446  and  _447
REMARK  178  A    between atoms: _456  and  _458
REMARK  179  A    between atoms: _458  and  _459
REMARK  180  A    between atoms: _458  and  _461
REMARK  181  A    between atoms: _461  and  _462
REMARK  182  A    between atoms: _462  and  _463
REMARK  183  A    between atoms: _466  and  _468
REMARK  184  A    between atoms: _468  and  _469
REMARK  185  A    between atoms: _468  and  _471
REMARK  186  A    between atoms: _471  and  _472
REMARK  187  A    between atoms: _472  and  _473
REMARK  188  A    between atoms: _473  and  _474
REMARK  189  A    between atoms: _474  and  _475
REMARK  190  A    between atoms: _479  and  _481
REMARK  191  A    between atoms: _481  and  _482
REMARK  192  A    between atoms: _484  and  _486
REMARK  193  A    between atoms: _486  and  _487
REMARK  194  A    between atoms: _490  and  _492
REMARK  195  A    between atoms: _492  and  _493
REMARK  196  A    between atoms: _492  and  _495
REMARK  197  A    between atoms: _495  and  _496
REMARK  198  A    between atoms: _496  and  _497
REMARK  199  A    between atoms: _502  and  _504
REMARK  200  A    between atoms: _504  and  _505
REMARK  201  A    between atoms: _508  and  _510
REMARK  202  A    between atoms: _510  and  _511
REMARK  203  A    between atoms: _510  and  _513
REMARK  204  A    between atoms: _513  and  _514
REMARK  205  A    between atoms: _517  and  _519
REMARK  206  A    between atoms: _519  and  _520
REMARK  207  A    between atoms: _519  and  _522
REMARK  208  A    between atoms: _525  and  _527
REMARK  209  A    between atoms: _527  and  _528
REMARK  210  A    between atoms: _531  and  _533
REMARK  211  A    between atoms: _533  and  _534
REMARK  212  A    between atoms: _537  and  _539
REMARK  213  A    between atoms: _539  and  _540
REMARK  214  A    between atoms: _539  and  _542
REMARK  215  A    between atoms: _542  and  _543
REMARK                            x       y       z     vdW  Elec       q    Type
REMARK                         _______ _______ _______ _____ _____    ______ ____
ROOT
ATOM      1  O   HOH     1     -22.401   4.479   9.228  0.00  0.00    +0.000 OA
ENDROOT
TORSDOF 0
REMARK  Name = ../refined-set-2016/2c92/2c92_pocket.pdb
REMARK  215 active torsions:
REMARK  status: ('A' for Active; 'I' for Inactive)
REMARK    1  A    between atoms: _1  and  _3
REMARK    2  A    between atoms: _3  and  _4
REMARK    3  A    between atoms: _7  and  _9
REMARK    4  A    between atoms: _9  and  _10
REMARK    5  A    between atoms: _9  and  _12
REMARK    6  A    between atoms: _12  and  _13
REMARK    7  A    between atoms: _15  and  _17
REMARK    8  A    between atoms: _17  and  _18
REMARK    9  A    between atoms: _17  and  _20
REMARK   10  A    between atoms: _20  and  _21
REMARK   11  A    between atoms: _23  and  _25
REMARK   12  A    between atoms: _25  and  _26
REMARK   13  A    between atoms: _25  and  _28
REMARK   14  A    between atoms: _28  and  _29
REMARK   15  A    between atoms: _39  and  _41
REMARK   16  A    between atoms: _41  and  _42
REMARK   17  A    between atoms: _41  and  _44
REMARK   18  A    between atoms: _44  and  _45
REMARK   19  A    between atoms: _50  and  _52
REMARK   20  A    between atoms: _52  and  _53
REMARK   21  A    between atoms: _52  and  _55
REMARK   22  A    between atoms: _57  and  _59
REMARK   23  A    between atoms: _59  and  _60
REMARK   24  A    between atoms: _59  and  _62
REMARK   25  A    between atoms: _65  and  _67
REMARK   26  A    between atoms: _67  and  _68
REMARK   27  A    between atoms: _67  and  _70
REMARK   28  A    between atoms: _70  and  _71
REMARK   29  A    between atoms: _74  and  _76
REMARK   30  A    between atoms: _76  and  _77
REMARK   31  A    between atoms: _79  and  _81
REMARK   32  A    between atoms: _81  and  _82
REMARK   33  A    between atoms: _85  and  _87
REMARK   34  A    between atoms: _87  and  _88
REMARK   35  A    between atoms: _87  and  _90
REMARK   36  A    between atoms: _90  and  _91
REMARK   37  A    between atoms: _94  and  _96
REMARK   38  A    between atoms: _96  and  _97
REMARK   39  A    between atoms: _96  and  _99
REMARK   40  A    between atoms: _99  and  _100
REMARK   41  A    between atoms: _100  and  _101
REMARK   42  A    between atoms: _104  and  _106
REMARK   43  A    between atoms: _106  and  _107
REMARK   44  A    between atoms: _106  and  _109
REMARK   45  A    between atoms: _109  and  _110
REMARK   46  A    between atoms: _113  and  _115
REMARK   47  A    between atoms: _115  and  _116
REMARK   48  A    between atoms: _115  and  _118
REMARK   49  A    between atoms: _118  and  _119
REMARK   50  A    between atoms: _122  and  _124
REMARK   51  A    between atoms: _124  and  _125
REMARK   52  A    between atoms: _127  and  _129
REMARK   53  A    between atoms: _129  and  _130
REMARK   54  A    between atoms: _129  and  _132
REMARK   55  A    between atoms: _135  and  _137
REMARK   56  A    between atoms: _137  and  _138
REMARK   57  A    between atoms: _137  and  _140
REMARK   58  A    between atoms: _143  and  _145
REMARK   59  A    between atoms: _145  and  _146
REMARK   60  A    between atoms: _145  and  _148
REMARK   61  A    between atoms: _148  and  _149
REMARK   62  A    between atoms: _152  and  _154
REMARK   63  A    between atoms: _154  and  _155
REMARK   64  A    between atoms: _154  and  _157
REMARK   65  A    between atoms: _157  and  _158
REMARK   66  A    between atoms: _158  and  _159
REMARK   67  A    between atoms: _159  and  _160
REMARK   68  A    between atoms: _169  and  _171
REMARK   69  A    between atoms: _171  and  _172
REMARK   70  A    between atoms: _174  and  _176
REMARK   71  A    between atoms: _176  and  _177
REMARK   72  A    between atoms: _176  and  _179
REMARK   73  A    between atoms: _179  and  _180
REMARK   74  A    between atoms: _180  and  _181
REMARK   75  A    between atoms: _186  and  _188
REMARK   76  A    between atoms: _188  and  _189
REMARK   77  A    between atoms: _188  and  _191
REMARK   78  A    between atoms: _191  and  _192
REMARK   79  A    between atoms: _196  and  _197
REMARK   80  A    between atoms: _202  and  _204
REMARK   81  A    between atoms: _204  and  _205
REMARK   82  A    between atoms: _204  and  _207
REMARK   83  A    between atoms: _207  and  _208
REMARK   84  A    between atoms: _213  and  _215
REMARK   85  A    between atoms: _215  and  _216
REMARK   86  A    between atoms: _215  and  _218
REMARK   87  A    between atoms: _218  and  _219
REMARK   88  A    between atoms: _225  and  _227
REMARK   89  A    between atoms: _227  and  _228
REMARK   90  A    between atoms: _227  and  _230
REMARK   91  A    between atoms: _230  and  _231
REMARK   92  A    between atoms: _234  and  _236
REMARK   93  A    between atoms: _236  and  _237
REMARK   94  A    between atoms: _236  and  _239
REMARK   95  A    between atoms: _239  and  _240
REMARK   96  A    between atoms: _245  and  _246
REMARK   97  A    between atoms: _248  and  _250
REMARK   98  A    between atoms: _250  and  _251
REMARK   99  A    between atoms: _250  and  _253
REMARK  100  A    between atoms: _256  and  _258
REMARK  101  A    between atoms: _258  and  _259
REMARK  102  A    between atoms: _258  and  _261
REMARK  103  A    between atoms: _263  and  _265
REMARK  104  A    between atoms: _265  and  _266
REMARK  105  A    between atoms: _269  and  _271
REMARK  106  A    between atoms: _271  and  _272
REMARK  107  A    between atoms: _271  and  _274
REMARK  108  A    between atoms: _277  and  _279
REMARK  109  A    between atoms: _279  and  _280
REMARK  110  A    between atoms: _279  and  _282
REMARK  111  A    between atoms: _285  and  _287
REMARK  112  A    between atoms: _287  and  _288
REMARK  113  A    between atoms: _287  and  _290
REMARK  114  A    between atoms: _290  and  _291
REMARK  115  A    between atoms: _294  and  _296
REMARK  116  A    between atoms: _296  and  _297
REMARK  117  A    between atoms: _296  and  _299
REMARK  118  A    between atoms: _299  and  _300
REMARK  119  A    between atoms: _303  and  _305
REMARK  120  A    between atoms: _305  and  _306
REMARK  121  A    between atoms: _305  and  _308
REMARK  122  A    between atoms: _311  and  _313
REMARK  123  A    between atoms: _313  and  _314
REMARK  124  A    between atoms: _313  and  _316
REMARK  125  A    between atoms: _319  and  _321
REMARK  126  A    between atoms: _321  and  _322
REMARK  127  A    between atoms: _325  and  _327
REMARK  128  A    between atoms: _327  and  _328
REMARK  129  A    between atoms: _327  and  _330
REMARK  130  A    between atoms: _330  and  _331
REMARK  131  A    between atoms: _335  and  _336
REMARK  132  A    between atoms: _341  and  _343
REMARK  133  A    between atoms: _343  and  _344
REMARK  134  A    between atoms: _343  and  _346
REMARK  135  A    between atoms: _346  and  _347
REMARK  136  A    between atoms: _350  and  _352
REMARK  137  A    between atoms: _352  and  _353
REMARK  138  A    between atoms: _356  and  _358
REMARK  139  A    between atoms: _358  and  _359
REMARK  140  A    between atoms: _358  and  _361
REMARK  141  A    between atoms: _361  and  _362
REMARK  142  A    between atoms: _367  and  _369
REMARK  143  A    between atoms: _369  and  _370
REMARK  144  A    between atoms: _372  and  _374
REMARK  145  A    between atoms: _374  and  _375
REMARK  146  A    between atoms: _374  and  _377
REMARK  147  A    between atoms: _380  and  _382
REMARK  148  A    between atoms: _382  and  _383
REMARK  149  A    between atoms: _382  and  _385
REMARK  150  A    between atoms: _385  and  _386
REMARK  151  A    between atoms: _389  and  _391
REMARK  152  A    between atoms: _391  and  _392
REMARK  153  A    between atoms: _391  and  _394
REMARK  154  A    between atoms: _394  and  _395
REMARK  155  A    between atoms: _398  and  _400
REMARK  156  A    between atoms: _400  and  _401
REMARK  157  A    between atoms: _400  and  _403
REMARK  158  A    between atoms: _403  and  _404
REMARK  159  A    between atoms: _407  and  _409
REMARK  160  A    between atoms: _409  and  _410
REMARK  161  A    between atoms: _409  and  _412
REMARK  162  A    between atoms: _412  and  _413
REMARK  163  A    between atoms: _418  and  _420
REMARK  164  A    between atoms: _420  and  _421
REMARK  165  A    between atoms: _420  and  _423
REMARK  166  A    between atoms: _423  and  _424
REMARK  167  A    between atoms: _424  and  _425
REMARK  168  A    between atoms: _430  and  _432
REMARK  169  A    between atoms: _432  and  _433
REMARK  170  A    between atoms: _432  and  _435
REMARK  171  A    between atoms: _435  and  _436
REMARK  172  A    between atoms: _439  and  _441
REMARK  173  A    between atoms: _441  and  _442
REMARK  174  A    between atoms: _441  and  _444
REMARK  175  A    between atoms: _444  and  _445
REMARK  176  A    between atoms: _445  and  _446
REMARK  177  A    between atoms: _446  and  _447
REMARK  178  A    between atoms: _456  and  _458
REMARK  179  A    between atoms: _458  and  _459
REMARK  180  A    between atoms: _458  and  _461
REMARK  181  A    between atoms: _461  and  _462
REMARK  182  A    between atoms: _462  and  _463
REMARK  183  A    between atoms: _466  and  _468
REMARK  184  A    between atoms: _468  and  _469
REMARK  185  A    between atoms: _468  and  _471
REMARK  186  A    between atoms: _471  and  _472
REMARK  187  A    between atoms: _472  and  _473
REMARK  188  A    between atoms: _473  and  _474
REMARK  189  A    between atoms: _474  and  _475
REMARK  190  A    between atoms: _479  and  _481
REMARK  191  A    between atoms: _481  and  _482
REMARK  192  A    between atoms: _484  and  _486
REMARK  193  A    between atoms: _486  and  _487
REMARK  194  A    between atoms: _490  and  _492
REMARK  195  A    between atoms: _492  and  _493
REMARK  196  A    between atoms: _492  and  _495
REMARK  197  A    between atoms: _495  and  _496
REMARK  198  A    between atoms: _496  and  _497
REMARK  199  A    between atoms: _502  and  _504
REMARK  200  A    between atoms: _504  and  _505
REMARK  201  A    between atoms: _508  and  _510
REMARK  202  A    between atoms: _510  and  _511
REMARK  203  A    between atoms: _510  and  _513
REMARK  204  A    between atoms: _513  and  _514
REMARK  205  A    between atoms: _517  and  _519
REMARK  206  A    between atoms: _519  and  _520
REMARK  207  A    between atoms: _519  and  _522
REMARK  208  A    between atoms: _525  and  _527
REMARK  209  A    between atoms: _527  and  _528
REMARK  210  A    between atoms: _531  and  _533
REMARK  211  A    between atoms: _533  and  _534
REMARK  212  A    between atoms: _537  and  _539
REMARK  213  A    between atoms: _539  and  _540
REMARK  214  A    between atoms: _539  and  _542
REMARK  215  A    between atoms: _542  and  _543
REMARK                            x       y       z     vdW  Elec       q    Type
REMARK                         _______ _______ _______ _____ _____    ______ ____
ROOT
ATOM      1  O   HOH     1     -19.569   3.046  -3.311  0.00  0.00    +0.000 OA
ENDROOT
TORSDOF 0
REMARK  Name = ../refined-set-2016/2c92/2c92_pocket.pdb
REMARK  215 active torsions:
REMARK  status: ('A' for Active; 'I' for Inactive)
REMARK    1  A    between atoms: _1  and  _3
REMARK    2  A    between atoms: _3  and  _4
REMARK    3  A    between atoms: _7  and  _9
REMARK    4  A    between atoms: _9  and  _10
REMARK    5  A    between atoms: _9  and  _12
REMARK    6  A    between atoms: _12  and  _13
REMARK    7  A    between atoms: _15  and  _17
REMARK    8  A    between atoms: _17  and  _18
REMARK    9  A    between atoms: _17  and  _20
REMARK   10  A    between atoms: _20  and  _21
REMARK   11  A    between atoms: _23  and  _25
REMARK   12  A    between atoms: _25  and  _26
REMARK   13  A    between atoms: _25  and  _28
REMARK   14  A    between atoms: _28  and  _29
REMARK   15  A    between atoms: _39  and  _41
REMARK   16  A    between atoms: _41  and  _42
REMARK   17  A    between atoms: _41  and  _44
REMARK   18  A    between atoms: _44  and  _45
REMARK   19  A    between atoms: _50  and  _52
REMARK   20  A    between atoms: _52  and  _53
REMARK   21  A    between atoms: _52  and  _55
REMARK   22  A    between atoms: _57  and  _59
REMARK   23  A    between atoms: _59  and  _60
REMARK   24  A    between atoms: _59  and  _62
REMARK   25  A    between atoms: _65  and  _67
REMARK   26  A    between atoms: _67  and  _68
REMARK   27  A    between atoms: _67  and  _70
REMARK   28  A    between atoms: _70  and  _71
REMARK   29  A    between atoms: _74  and  _76
REMARK   30  A    between atoms: _76  and  _77
REMARK   31  A    between atoms: _79  and  _81
REMARK   32  A    between atoms: _81  and  _82
REMARK   33  A    between atoms: _85  and  _87
REMARK   34  A    between atoms: _87  and  _88
REMARK   35  A    between atoms: _87  and  _90
REMARK   36  A    between atoms: _90  and  _91
REMARK   37  A    between atoms: _94  and  _96
REMARK   38  A    between atoms: _96  and  _97
REMARK   39  A    between atoms: _96  and  _99
REMARK   40  A    between atoms: _99  and  _100
REMARK   41  A    between atoms: _100  and  _101
REMARK   42  A    between atoms: _104  and  _106
REMARK   43  A    between atoms: _106  and  _107
REMARK   44  A    between atoms: _106  and  _109
REMARK   45  A    between atoms: _109  and  _110
REMARK   46  A    between atoms: _113  and  _115
REMARK   47  A    between atoms: _115  and  _116
REMARK   48  A    between atoms: _115  and  _118
REMARK   49  A    between atoms: _118  and  _119
REMARK   50  A    between atoms: _122  and  _124
REMARK   51  A    between atoms: _124  and  _125
REMARK   52  A    between atoms: _127  and  _129
REMARK   53  A    between atoms: _129  and  _130
REMARK   54  A    between atoms: _129  and  _132
REMARK   55  A    between atoms: _135  and  _137
REMARK   56  A    between atoms: _137  and  _138
REMARK   57  A    between atoms: _137  and  _140
REMARK   58  A    between atoms: _143  and  _145
REMARK   59  A    between atoms: _145  and  _146
REMARK   60  A    between atoms: _145  and  _148
REMARK   61  A    between atoms: _148  and  _149
REMARK   62  A    between atoms: _152  and  _154
REMARK   63  A    between atoms: _154  and  _155
REMARK   64  A    between atoms: _154  and  _157
REMARK   65  A    between atoms: _157  and  _158
REMARK   66  A    between atoms: _158  and  _159
REMARK   67  A    between atoms: _159  and  _160
REMARK   68  A    between atoms: _169  and  _171
REMARK   69  A    between atoms: _171  and  _172
REMARK   70  A    between atoms: _174  and  _176
REMARK   71  A    between atoms: _176  and  _177
REMARK   72  A    between atoms: _176  and  _179
REMARK   73  A    between atoms: _179  and  _180
REMARK   74  A    between atoms: _180  and  _181
REMARK   75  A    between atoms: _186  and  _188
REMARK   76  A    between atoms: _188  and  _189
REMARK   77  A    between atoms: _188  and  _191
REMARK   78  A    between atoms: _191  and  _192
REMARK   79  A    between atoms: _196  and  _197
REMARK   80  A    between atoms: _202  and  _204
REMARK   81  A    between atoms: _204  and  _205
REMARK   82  A    between atoms: _204  and  _207
REMARK   83  A    between atoms: _207  and  _208
REMARK   84  A    between atoms: _213  and  _215
REMARK   85  A    between atoms: _215  and  _216
REMARK   86  A    between atoms: _215  and  _218
REMARK   87  A    between atoms: _218  and  _219
REMARK   88  A    between atoms: _225  and  _227
REMARK   89  A    between atoms: _227  and  _228
REMARK   90  A    between atoms: _227  and  _230
REMARK   91  A    between atoms: _230  and  _231
REMARK   92  A    between atoms: _234  and  _236
REMARK   93  A    between atoms: _236  and  _237
REMARK   94  A    between atoms: _236  and  _239
REMARK   95  A    between atoms: _239  and  _240
REMARK   96  A    between atoms: _245  and  _246
REMARK   97  A    between atoms: _248  and  _250
REMARK   98  A    between atoms: _250  and  _251
REMARK   99  A    between atoms: _250  and  _253
REMARK  100  A    between atoms: _256  and  _258
REMARK  101  A    between atoms: _258  and  _259
REMARK  102  A    between atoms: _258  and  _261
REMARK  103  A    between atoms: _263  and  _265
REMARK  104  A    between atoms: _265  and  _266
REMARK  105  A    between atoms: _269  and  _271
REMARK  106  A    between atoms: _271  and  _272
REMARK  107  A    between atoms: _271  and  _274
REMARK  108  A    between atoms: _277  and  _279
REMARK  109  A    between atoms: _279  and  _280
REMARK  110  A    between atoms: _279  and  _282
REMARK  111  A    between atoms: _285  and  _287
REMARK  112  A    between atoms: _287  and  _288
REMARK  113  A    between atoms: _287  and  _290
REMARK  114  A    between atoms: _290  and  _291
REMARK  115  A    between atoms: _294  and  _296
REMARK  116  A    between atoms: _296  and  _297
REMARK  117  A    between atoms: _296  and  _299
REMARK  118  A    between atoms: _299  and  _300
REMARK  119  A    between atoms: _303  and  _305
REMARK  120  A    between atoms: _305  and  _306
REMARK  121  A    between atoms: _305  and  _308
REMARK  122  A    between atoms: _311  and  _313
REMARK  123  A    between atoms: _313  and  _314
REMARK  124  A    between atoms: _313  and  _316
REMARK  125  A    between atoms: _319  and  _321
REMARK  126  A    between atoms: _321  and  _322
REMARK  127  A    between atoms: _325  and  _327
REMARK  128  A    between atoms: _327  and  _328
REMARK  129  A    between atoms: _327  and  _330
REMARK  130  A    between atoms: _330  and  _331
REMARK  131  A    between atoms: _335  and  _336
REMARK  132  A    between atoms: _341  and  _343
REMARK  133  A    between atoms: _343  and  _344
REMARK  134  A    between atoms: _343  and  _346
REMARK  135  A    between atoms: _346  and  _347
REMARK  136  A    between atoms: _350  and  _352
REMARK  137  A    between atoms: _352  and  _353
REMARK  138  A    between atoms: _356  and  _358
REMARK  139  A    between atoms: _358  and  _359
REMARK  140  A    between atoms: _358  and  _361
REMARK  141  A    between atoms: _361  and  _362
REMARK  142  A    between atoms: _367  and  _369
REMARK  143  A    between atoms: _369  and  _370
REMARK  144  A    between atoms: _372  and  _374
REMARK  145  A    between atoms: _374  and  _375
REMARK  146  A    between atoms: _374  and  _377
REMARK  147  A    between atoms: _380  and  _382
REMARK  148  A    between atoms: _382  and  _383
REMARK  149  A    between atoms: _382  and  _385
REMARK  150  A    between atoms: _385  and  _386
REMARK  151  A    between atoms: _389  and  _391
REMARK  152  A    between atoms: _391  and  _392
REMARK  153  A    between atoms: _391  and  _394
REMARK  154  A    between atoms: _394  and  _395
REMARK  155  A    between atoms: _398  and  _400
REMARK  156  A    between atoms: _400  and  _401
REMARK  157  A    between atoms: _400  and  _403
REMARK  158  A    between atoms: _403  and  _404
REMARK  159  A    between atoms: _407  and  _409
REMARK  160  A    between atoms: _409  and  _410
REMARK  161  A    between atoms: _409  and  _412
REMARK  162  A    between atoms: _412  and  _413
REMARK  163  A    between atoms: _418  and  _420
REMARK  164  A    between atoms: _420  and  _421
REMARK  165  A    between atoms: _420  and  _423
REMARK  166  A    between atoms: _423  and  _424
REMARK  167  A    between atoms: _424  and  _425
REMARK  168  A    between atoms: _430  and  _432
REMARK  169  A    between atoms: _432  and  _433
REMARK  170  A    between atoms: _432  and  _435
REMARK  171  A    between atoms: _435  and  _436
REMARK  172  A    between atoms: _439  and  _441
REMARK  173  A    between atoms: _441  and  _442
REMARK  174  A    between atoms: _441  and  _444
REMARK  175  A    between atoms: _444  and  _445
REMARK  176  A    between atoms: _445  and  _446
REMARK  177  A    between atoms: _446  and  _447
REMARK  178  A    between atoms: _456  and  _458
REMARK  179  A    between atoms: _458  and  _459
REMARK  180  A    between atoms: _458  and  _461
REMARK  181  A    between atoms: _461  and  _462
REMARK  182  A    between atoms: _462  and  _463
REMARK  183  A    between atoms: _466  and  _468
REMARK  184  A    between atoms: _468  and  _469
REMARK  185  A    between atoms: _468  and  _471
REMARK  186  A    between atoms: _471  and  _472
REMARK  187  A    between atoms: _472  and  _473
REMARK  188  A    between atoms: _473  and  _474
REMARK  189  A    between atoms: _474  and  _475
REMARK  190  A    between atoms: _479  and  _481
REMARK  191  A    between atoms: _481  and  _482
REMARK  192  A    between atoms: _484  and  _486
REMARK  193  A    between atoms: _486  and  _487
REMARK  194  A    between atoms: _490  and  _492
REMARK  195  A    between atoms: _492  and  _493
REMARK  196  A    between atoms: _492  and  _495
REMARK  197  A    between atoms: _495  and  _496
REMARK  198  A    between atoms: _496  and  _497
REMARK  199  A    between atoms: _502  and  _504
REMARK  200  A    between atoms: _504  and  _505
REMARK  201  A    between atoms: _508  and  _510
REMARK  202  A    between atoms: _510  and  _511
REMARK  203  A    between atoms: _510  and  _513
REMARK  204  A    between atoms: _513  and  _514
REMARK  205  A    between atoms: _517  and  _519
REMARK  206  A    between atoms: _519  and  _520
REMARK  207  A    between atoms: _519  and  _522
REMARK  208  A    between atoms: _525  and  _527
REMARK  209  A    between atoms: _527  and  _528
REMARK  210  A    between atoms: _531  and  _533
REMARK  211  A    between atoms: _533  and  _534
REMARK  212  A    between atoms: _537  and  _539
REMARK  213  A    between atoms: _539  and  _540
REMARK  214  A    between atoms: _539  and  _542
REMARK  215  A    between atoms: _542  and  _543
REMARK                            x       y       z     vdW  Elec       q    Type
REMARK                         _______ _______ _______ _____ _____    ______ ____
ROOT
ATOM      1  O   HOH     1     -29.314   1.465   6.931  0.00  0.00    +0.000 OA
ENDROOT
TORSDOF 0
REMARK  Name = ../refined-set-2016/2c92/2c92_pocket.pdb
REMARK  215 active torsions:
REMARK  status: ('A' for Active; 'I' for Inactive)
REMARK    1  A    between atoms: _1  and  _3
REMARK    2  A    between atoms: _3  and  _4
REMARK    3  A    between atoms: _7  and  _9
REMARK    4  A    between atoms: _9  and  _10
REMARK    5  A    between atoms: _9  and  _12
REMARK    6  A    between atoms: _12  and  _13
REMARK    7  A    between atoms: _15  and  _17
REMARK    8  A    between atoms: _17  and  _18
REMARK    9  A    between atoms: _17  and  _20
REMARK   10  A    between atoms: _20  and  _21
REMARK   11  A    between atoms: _23  and  _25
REMARK   12  A    between atoms: _25  and  _26
REMARK   13  A    between atoms: _25  and  _28
REMARK   14  A    between atoms: _28  and  _29
REMARK   15  A    between atoms: _39  and  _41
REMARK   16  A    between atoms: _41  and  _42
REMARK   17  A    between atoms: _41  and  _44
REMARK   18  A    between atoms: _44  and  _45
REMARK   19  A    between atoms: _50  and  _52
REMARK   20  A    between atoms: _52  and  _53
REMARK   21  A    between atoms: _52  and  _55
REMARK   22  A    between atoms: _57  and  _59
REMARK   23  A    between atoms: _59  and  _60
REMARK   24  A    between atoms: _59  and  _62
REMARK   25  A    between atoms: _65  and  _67
REMARK   26  A    between atoms: _67  and  _68
REMARK   27  A    between atoms: _67  and  _70
REMARK   28  A    between atoms: _70  and  _71
REMARK   29  A    between atoms: _74  and  _76
REMARK   30  A    between atoms: _76  and  _77
REMARK   31  A    between atoms: _79  and  _81
REMARK   32  A    between atoms: _81  and  _82
REMARK   33  A    between atoms: _85  and  _87
REMARK   34  A    between atoms: _87  and  _88
REMARK   35  A    between atoms: _87  and  _90
REMARK   36  A    between atoms: _90  and  _91
REMARK   37  A    between atoms: _94  and  _96
REMARK   38  A    between atoms: _96  and  _97
REMARK   39  A    between atoms: _96  and  _99
REMARK   40  A    between atoms: _99  and  _100
REMARK   41  A    between atoms: _100  and  _101
REMARK   42  A    between atoms: _104  and  _106
REMARK   43  A    between atoms: _106  and  _107
REMARK   44  A    between atoms: _106  and  _109
REMARK   45  A    between atoms: _109  and  _110
REMARK   46  A    between atoms: _113  and  _115
REMARK   47  A    between atoms: _115  and  _116
REMARK   48  A    between atoms: _115  and  _118
REMARK   49  A    between atoms: _118  and  _119
REMARK   50  A    between atoms: _122  and  _124
REMARK   51  A    between atoms: _124  and  _125
REMARK   52  A    between atoms: _127  and  _129
REMARK   53  A    between atoms: _129  and  _130
REMARK   54  A    between atoms: _129  and  _132
REMARK   55  A    between atoms: _135  and  _137
REMARK   56  A    between atoms: _137  and  _138
REMARK   57  A    between atoms: _137  and  _140
REMARK   58  A    between atoms: _143  and  _145
REMARK   59  A    between atoms: _145  and  _146
REMARK   60  A    between atoms: _145  and  _148
REMARK   61  A    between atoms: _148  and  _149
REMARK   62  A    between atoms: _152  and  _154
REMARK   63  A    between atoms: _154  and  _155
REMARK   64  A    between atoms: _154  and  _157
REMARK   65  A    between atoms: _157  and  _158
REMARK   66  A    between atoms: _158  and  _159
REMARK   67  A    between atoms: _159  and  _160
REMARK   68  A    between atoms: _169  and  _171
REMARK   69  A    between atoms: _171  and  _172
REMARK   70  A    between atoms: _174  and  _176
REMARK   71  A    between atoms: _176  and  _177
REMARK   72  A    between atoms: _176  and  _179
REMARK   73  A    between atoms: _179  and  _180
REMARK   74  A    between atoms: _180  and  _181
REMARK   75  A    between atoms: _186  and  _188
REMARK   76  A    between atoms: _188  and  _189
REMARK   77  A    between atoms: _188  and  _191
REMARK   78  A    between atoms: _191  and  _192
REMARK   79  A    between atoms: _196  and  _197
REMARK   80  A    between atoms: _202  and  _204
REMARK   81  A    between atoms: _204  and  _205
REMARK   82  A    between atoms: _204  and  _207
REMARK   83  A    between atoms: _207  and  _208
REMARK   84  A    between atoms: _213  and  _215
REMARK   85  A    between atoms: _215  and  _216
REMARK   86  A    between atoms: _215  and  _218
REMARK   87  A    between atoms: _218  and  _219
REMARK   88  A    between atoms: _225  and  _227
REMARK   89  A    between atoms: _227  and  _228
REMARK   90  A    between atoms: _227  and  _230
REMARK   91  A    between atoms: _230  and  _231
REMARK   92  A    between atoms: _234  and  _236
REMARK   93  A    between atoms: _236  and  _237
REMARK   94  A    between atoms: _236  and  _239
REMARK   95  A    between atoms: _239  and  _240
REMARK   96  A    between atoms: _245  and  _246
REMARK   97  A    between atoms: _248  and  _250
REMARK   98  A    between atoms: _250  and  _251
REMARK   99  A    between atoms: _250  and  _253
REMARK  100  A    between atoms: _256  and  _258
REMARK  101  A    between atoms: _258  and  _259
REMARK  102  A    between atoms: _258  and  _261
REMARK  103  A    between atoms: _263  and  _265
REMARK  104  A    between atoms: _265  and  _266
REMARK  105  A    between atoms: _269  and  _271
REMARK  106  A    between atoms: _271  and  _272
REMARK  107  A    between atoms: _271  and  _274
REMARK  108  A    between atoms: _277  and  _279
REMARK  109  A    between atoms: _279  and  _280
REMARK  110  A    between atoms: _279  and  _282
REMARK  111  A    between atoms: _285  and  _287
REMARK  112  A    between atoms: _287  and  _288
REMARK  113  A    between atoms: _287  and  _290
REMARK  114  A    between atoms: _290  and  _291
REMARK  115  A    between atoms: _294  and  _296
REMARK  116  A    between atoms: _296  and  _297
REMARK  117  A    between atoms: _296  and  _299
REMARK  118  A    between atoms: _299  and  _300
REMARK  119  A    between atoms: _303  and  _305
REMARK  120  A    between atoms: _305  and  _306
REMARK  121  A    between atoms: _305  and  _308
REMARK  122  A    between atoms: _311  and  _313
REMARK  123  A    between atoms: _313  and  _314
REMARK  124  A    between atoms: _313  and  _316
REMARK  125  A    between atoms: _319  and  _321
REMARK  126  A    between atoms: _321  and  _322
REMARK  127  A    between atoms: _325  and  _327
REMARK  128  A    between atoms: _327  and  _328
REMARK  129  A    between atoms: _327  and  _330
REMARK  130  A    between atoms: _330  and  _331
REMARK  131  A    between atoms: _335  and  _336
REMARK  132  A    between atoms: _341  and  _343
REMARK  133  A    between atoms: _343  and  _344
REMARK  134  A    between atoms: _343  and  _346
REMARK  135  A    between atoms: _346  and  _347
REMARK  136  A    between atoms: _350  and  _352
REMARK  137  A    between atoms: _352  and  _353
REMARK  138  A    between atoms: _356  and  _358
REMARK  139  A    between atoms: _358  and  _359
REMARK  140  A    between atoms: _358  and  _361
REMARK  141  A    between atoms: _361  and  _362
REMARK  142  A    between atoms: _367  and  _369
REMARK  143  A    between atoms: _369  and  _370
REMARK  144  A    between atoms: _372  and  _374
REMARK  145  A    between atoms: _374  and  _375
REMARK  146  A    between atoms: _374  and  _377
REMARK  147  A    between atoms: _380  and  _382
REMARK  148  A    between atoms: _382  and  _383
REMARK  149  A    between atoms: _382  and  _385
REMARK  150  A    between atoms: _385  and  _386
REMARK  151  A    between atoms: _389  and  _391
REMARK  152  A    between atoms: _391  and  _392
REMARK  153  A    between atoms: _391  and  _394
REMARK  154  A    between atoms: _394  and  _395
REMARK  155  A    between atoms: _398  and  _400
REMARK  156  A    between atoms: _400  and  _401
REMARK  157  A    between atoms: _400  and  _403
REMARK  158  A    between atoms: _403  and  _404
REMARK  159  A    between atoms: _407  and  _409
REMARK  160  A    between atoms: _409  and  _410
REMARK  161  A    between atoms: _409  and  _412
REMARK  162  A    between atoms: _412  and  _413
REMARK  163  A    between atoms: _418  and  _420
REMARK  164  A    between atoms: _420  and  _421
REMARK  165  A    between atoms: _420  and  _423
REMARK  166  A    between atoms: _423  and  _424
REMARK  167  A    between atoms: _424  and  _425
REMARK  168  A    between atoms: _430  and  _432
REMARK  169  A    between atoms: _432  and  _433
REMARK  170  A    between atoms: _432  and  _435
REMARK  171  A    between atoms: _435  and  _436
REMARK  172  A    between atoms: _439  and  _441
REMARK  173  A    between atoms: _441  and  _442
REMARK  174  A    between atoms: _441  and  _444
REMARK  175  A    between atoms: _444  and  _445
REMARK  176  A    between atoms: _445  and  _446
REMARK  177  A    between atoms: _446  and  _447
REMARK  178  A    between atoms: _456  and  _458
REMARK  179  A    between atoms: _458  and  _459
REMARK  180  A    between atoms: _458  and  _461
REMARK  181  A    between atoms: _461  and  _462
REMARK  182  A    between atoms: _462  and  _463
REMARK  183  A    between atoms: _466  and  _468
REMARK  184  A    between atoms: _468  and  _469
REMARK  185  A    between atoms: _468  and  _471
REMARK  186  A    between atoms: _471  and  _472
REMARK  187  A    between atoms: _472  and  _473
REMARK  188  A    between atoms: _473  and  _474
REMARK  189  A    between atoms: _474  and  _475
REMARK  190  A    between atoms: _479  and  _481
REMARK  191  A    between atoms: _481  and  _482
REMARK  192  A    between atoms: _484  and  _486
REMARK  193  A    between atoms: _486  and  _487
REMARK  194  A    between atoms: _490  and  _492
REMARK  195  A    between atoms: _492  and  _493
REMARK  196  A    between atoms: _492  and  _495
REMARK  197  A    between atoms: _495  and  _496
REMARK  198  A    between atoms: _496  and  _497
REMARK  199  A    between atoms: _502  and  _504
REMARK  200  A    between atoms: _504  and  _505
REMARK  201  A    between atoms: _508  and  _510
REMARK  202  A    between atoms: _510  and  _511
REMARK  203  A    between atoms: _510  and  _513
REMARK  204  A    between atoms: _513  and  _514
REMARK  205  A    between atoms: _517  and  _519
REMARK  206  A    between atoms: _519  and  _520
REMARK  207  A    between atoms: _519  and  _522
REMARK  208  A    between atoms: _525  and  _527
REMARK  209  A    between atoms: _527  and  _528
REMARK  210  A    between atoms: _531  and  _533
REMARK  211  A    between atoms: _533  and  _534
REMARK  212  A    between atoms: _537  and  _539
REMARK  213  A    between atoms: _539  and  _540
REMARK  214  A    between atoms: _539  and  _542
REMARK  215  A    between atoms: _542  and  _543
REMARK                            x       y       z     vdW  Elec       q    Type
REMARK                         _______ _______ _______ _____ _____    ______ ____
ROOT
ATOM      1  O   HOH     1     -20.122   6.024   3.140  0.00  0.00    +0.000 OA
ENDROOT
TORSDOF 0
REMARK  Name = ../refined-set-2016/2c92/2c92_pocket.pdb
REMARK  215 active torsions:
REMARK  status: ('A' for Active; 'I' for Inactive)
REMARK    1  A    between atoms: _1  and  _3
REMARK    2  A    between atoms: _3  and  _4
REMARK    3  A    between atoms: _7  and  _9
REMARK    4  A    between atoms: _9  and  _10
REMARK    5  A    between atoms: _9  and  _12
REMARK    6  A    between atoms: _12  and  _13
REMARK    7  A    between atoms: _15  and  _17
REMARK    8  A    between atoms: _17  and  _18
REMARK    9  A    between atoms: _17  and  _20
REMARK   10  A    between atoms: _20  and  _21
REMARK   11  A    between atoms: _23  and  _25
REMARK   12  A    between atoms: _25  and  _26
REMARK   13  A    between atoms: _25  and  _28
REMARK   14  A    between atoms: _28  and  _29
REMARK   15  A    between atoms: _39  and  _41
REMARK   16  A    between atoms: _41  and  _42
REMARK   17  A    between atoms: _41  and  _44
REMARK   18  A    between atoms: _44  and  _45
REMARK   19  A    between atoms: _50  and  _52
REMARK   20  A    between atoms: _52  and  _53
REMARK   21  A    between atoms: _52  and  _55
REMARK   22  A    between atoms: _57  and  _59
REMARK   23  A    between atoms: _59  and  _60
REMARK   24  A    between atoms: _59  and  _62
REMARK   25  A    between atoms: _65  and  _67
REMARK   26  A    between atoms: _67  and  _68
REMARK   27  A    between atoms: _67  and  _70
REMARK   28  A    between atoms: _70  and  _71
REMARK   29  A    between atoms: _74  and  _76
REMARK   30  A    between atoms: _76  and  _77
REMARK   31  A    between atoms: _79  and  _81
REMARK   32  A    between atoms: _81  and  _82
REMARK   33  A    between atoms: _85  and  _87
REMARK   34  A    between atoms: _87  and  _88
REMARK   35  A    between atoms: _87  and  _90
REMARK   36  A    between atoms: _90  and  _91
REMARK   37  A    between atoms: _94  and  _96
REMARK   38  A    between atoms: _96  and  _97
REMARK   39  A    between atoms: _96  and  _99
REMARK   40  A    between atoms: _99  and  _100
REMARK   41  A    between atoms: _100  and  _101
REMARK   42  A    between atoms: _104  and  _106
REMARK   43  A    between atoms: _106  and  _107
REMARK   44  A    between atoms: _106  and  _109
REMARK   45  A    between atoms: _109  and  _110
REMARK   46  A    between atoms: _113  and  _115
REMARK   47  A    between atoms: _115  and  _116
REMARK   48  A    between atoms: _115  and  _118
REMARK   49  A    between atoms: _118  and  _119
REMARK   50  A    between atoms: _122  and  _124
REMARK   51  A    between atoms: _124  and  _125
REMARK   52  A    between atoms: _127  and  _129
REMARK   53  A    between atoms: _129  and  _130
REMARK   54  A    between atoms: _129  and  _132
REMARK   55  A    between atoms: _135  and  _137
REMARK   56  A    between atoms: _137  and  _138
REMARK   57  A    between atoms: _137  and  _140
REMARK   58  A    between atoms: _143  and  _145
REMARK   59  A    between atoms: _145  and  _146
REMARK   60  A    between atoms: _145  and  _148
REMARK   61  A    between atoms: _148  and  _149
REMARK   62  A    between atoms: _152  and  _154
REMARK   63  A    between atoms: _154  and  _155
REMARK   64  A    between atoms: _154  and  _157
REMARK   65  A    between atoms: _157  and  _158
REMARK   66  A    between atoms: _158  and  _159
REMARK   67  A    between atoms: _159  and  _160
REMARK   68  A    between atoms: _169  and  _171
REMARK   69  A    between atoms: _171  and  _172
REMARK   70  A    between atoms: _174  and  _176
REMARK   71  A    between atoms: _176  and  _177
REMARK   72  A    between atoms: _176  and  _179
REMARK   73  A    between atoms: _179  and  _180
REMARK   74  A    between atoms: _180  and  _181
REMARK   75  A    between atoms: _186  and  _188
REMARK   76  A    between atoms: _188  and  _189
REMARK   77  A    between atoms: _188  and  _191
REMARK   78  A    between atoms: _191  and  _192
REMARK   79  A    between atoms: _196  and  _197
REMARK   80  A    between atoms: _202  and  _204
REMARK   81  A    between atoms: _204  and  _205
REMARK   82  A    between atoms: _204  and  _207
REMARK   83  A    between atoms: _207  and  _208
REMARK   84  A    between atoms: _213  and  _215
REMARK   85  A    between atoms: _215  and  _216
REMARK   86  A    between atoms: _215  and  _218
REMARK   87  A    between atoms: _218  and  _219
REMARK   88  A    between atoms: _225  and  _227
REMARK   89  A    between atoms: _227  and  _228
REMARK   90  A    between atoms: _227  and  _230
REMARK   91  A    between atoms: _230  and  _231
REMARK   92  A    between atoms: _234  and  _236
REMARK   93  A    between atoms: _236  and  _237
REMARK   94  A    between atoms: _236  and  _239
REMARK   95  A    between atoms: _239  and  _240
REMARK   96  A    between atoms: _245  and  _246
REMARK   97  A    between atoms: _248  and  _250
REMARK   98  A    between atoms: _250  and  _251
REMARK   99  A    between atoms: _250  and  _253
REMARK  100  A    between atoms: _256  and  _258
REMARK  101  A    between atoms: _258  and  _259
REMARK  102  A    between atoms: _258  and  _261
REMARK  103  A    between atoms: _263  and  _265
REMARK  104  A    between atoms: _265  and  _266
REMARK  105  A    between atoms: _269  and  _271
REMARK  106  A    between atoms: _271  and  _272
REMARK  107  A    between atoms: _271  and  _274
REMARK  108  A    between atoms: _277  and  _279
REMARK  109  A    between atoms: _279  and  _280
REMARK  110  A    between atoms: _279  and  _282
REMARK  111  A    between atoms: _285  and  _287
REMARK  112  A    between atoms: _287  and  _288
REMARK  113  A    between atoms: _287  and  _290
REMARK  114  A    between atoms: _290  and  _291
REMARK  115  A    between atoms: _294  and  _296
REMARK  116  A    between atoms: _296  and  _297
REMARK  117  A    between atoms: _296  and  _299
REMARK  118  A    between atoms: _299  and  _300
REMARK  119  A    between atoms: _303  and  _305
REMARK  120  A    between atoms: _305  and  _306
REMARK  121  A    between atoms: _305  and  _308
REMARK  122  A    between atoms: _311  and  _313
REMARK  123  A    between atoms: _313  and  _314
REMARK  124  A    between atoms: _313  and  _316
REMARK  125  A    between atoms: _319  and  _321
REMARK  126  A    between atoms: _321  and  _322
REMARK  127  A    between atoms: _325  and  _327
REMARK  128  A    between atoms: _327  and  _328
REMARK  129  A    between atoms: _327  and  _330
REMARK  130  A    between atoms: _330  and  _331
REMARK  131  A    between atoms: _335  and  _336
REMARK  132  A    between atoms: _341  and  _343
REMARK  133  A    between atoms: _343  and  _344
REMARK  134  A    between atoms: _343  and  _346
REMARK  135  A    between atoms: _346  and  _347
REMARK  136  A    between atoms: _350  and  _352
REMARK  137  A    between atoms: _352  and  _353
REMARK  138  A    between atoms: _356  and  _358
REMARK  139  A    between atoms: _358  and  _359
REMARK  140  A    between atoms: _358  and  _361
REMARK  141  A    between atoms: _361  and  _362
REMARK  142  A    between atoms: _367  and  _369
REMARK  143  A    between atoms: _369  and  _370
REMARK  144  A    between atoms: _372  and  _374
REMARK  145  A    between atoms: _374  and  _375
REMARK  146  A    between atoms: _374  and  _377
REMARK  147  A    between atoms: _380  and  _382
REMARK  148  A    between atoms: _382  and  _383
REMARK  149  A    between atoms: _382  and  _385
REMARK  150  A    between atoms: _385  and  _386
REMARK  151  A    between atoms: _389  and  _391
REMARK  152  A    between atoms: _391  and  _392
REMARK  153  A    between atoms: _391  and  _394
REMARK  154  A    between atoms: _394  and  _395
REMARK  155  A    between atoms: _398  and  _400
REMARK  156  A    between atoms: _400  and  _401
REMARK  157  A    between atoms: _400  and  _403
REMARK  158  A    between atoms: _403  and  _404
REMARK  159  A    between atoms: _407  and  _409
REMARK  160  A    between atoms: _409  and  _410
REMARK  161  A    between atoms: _409  and  _412
REMARK  162  A    between atoms: _412  and  _413
REMARK  163  A    between atoms: _418  and  _420
REMARK  164  A    between atoms: _420  and  _421
REMARK  165  A    between atoms: _420  and  _423
REMARK  166  A    between atoms: _423  and  _424
REMARK  167  A    between atoms: _424  and  _425
REMARK  168  A    between atoms: _430  and  _432
REMARK  169  A    between atoms: _432  and  _433
REMARK  170  A    between atoms: _432  and  _435
REMARK  171  A    between atoms: _435  and  _436
REMARK  172  A    between atoms: _439  and  _441
REMARK  173  A    between atoms: _441  and  _442
REMARK  174  A    between atoms: _441  and  _444
REMARK  175  A    between atoms: _444  and  _445
REMARK  176  A    between atoms: _445  and  _446
REMARK  177  A    between atoms: _446  and  _447
REMARK  178  A    between atoms: _456  and  _458
REMARK  179  A    between atoms: _458  and  _459
REMARK  180  A    between atoms: _458  and  _461
REMARK  181  A    between atoms: _461  and  _462
REMARK  182  A    between atoms: _462  and  _463
REMARK  183  A    between atoms: _466  and  _468
REMARK  184  A    between atoms: _468  and  _469
REMARK  185  A    between atoms: _468  and  _471
REMARK  186  A    between atoms: _471  and  _472
REMARK  187  A    between atoms: _472  and  _473
REMARK  188  A    between atoms: _473  and  _474
REMARK  189  A    between atoms: _474  and  _475
REMARK  190  A    between atoms: _479  and  _481
REMARK  191  A    between atoms: _481  and  _482
REMARK  192  A    between atoms: _484  and  _486
REMARK  193  A    between atoms: _486  and  _487
REMARK  194  A    between atoms: _490  and  _492
REMARK  195  A    between atoms: _492  and  _493
REMARK  196  A    between atoms: _492  and  _495
REMARK  197  A    between atoms: _495  and  _496
REMARK  198  A    between atoms: _496  and  _497
REMARK  199  A    between atoms: _502  and  _504
REMARK  200  A    between atoms: _504  and  _505
REMARK  201  A    between atoms: _508  and  _510
REMARK  202  A    between atoms: _510  and  _511
REMARK  203  A    between atoms: _510  and  _513
REMARK  204  A    between atoms: _513  and  _514
REMARK  205  A    between atoms: _517  and  _519
REMARK  206  A    between atoms: _519  and  _520
REMARK  207  A    between atoms: _519  and  _522
REMARK  208  A    between atoms: _525  and  _527
REMARK  209  A    between atoms: _527  and  _528
REMARK  210  A    between atoms: _531  and  _533
REMARK  211  A    between atoms: _533  and  _534
REMARK  212  A    between atoms: _537  and  _539
REMARK  213  A    between atoms: _539  and  _540
REMARK  214  A    between atoms: _539  and  _542
REMARK  215  A    between atoms: _542  and  _543
REMARK                            x       y       z     vdW  Elec       q    Type
REMARK                         _______ _______ _______ _____ _____    ______ ____
ROOT
ATOM      1  O   HOH     1     -15.991   1.830   2.218  0.00  0.00    +0.000 OA
ENDROOT
TORSDOF 0
REMARK  Name = ../refined-set-2016/2c92/2c92_pocket.pdb
REMARK  215 active torsions:
REMARK  status: ('A' for Active; 'I' for Inactive)
REMARK    1  A    between atoms: _1  and  _3
REMARK    2  A    between atoms: _3  and  _4
REMARK    3  A    between atoms: _7  and  _9
REMARK    4  A    between atoms: _9  and  _10
REMARK    5  A    between atoms: _9  and  _12
REMARK    6  A    between atoms: _12  and  _13
REMARK    7  A    between atoms: _15  and  _17
REMARK    8  A    between atoms: _17  and  _18
REMARK    9  A    between atoms: _17  and  _20
REMARK   10  A    between atoms: _20  and  _21
REMARK   11  A    between atoms: _23  and  _25
REMARK   12  A    between atoms: _25  and  _26
REMARK   13  A    between atoms: _25  and  _28
REMARK   14  A    between atoms: _28  and  _29
REMARK   15  A    between atoms: _39  and  _41
REMARK   16  A    between atoms: _41  and  _42
REMARK   17  A    between atoms: _41  and  _44
REMARK   18  A    between atoms: _44  and  _45
REMARK   19  A    between atoms: _50  and  _52
REMARK   20  A    between atoms: _52  and  _53
REMARK   21  A    between atoms: _52  and  _55
REMARK   22  A    between atoms: _57  and  _59
REMARK   23  A    between atoms: _59  and  _60
REMARK   24  A    between atoms: _59  and  _62
REMARK   25  A    between atoms: _65  and  _67
REMARK   26  A    between atoms: _67  and  _68
REMARK   27  A    between atoms: _67  and  _70
REMARK   28  A    between atoms: _70  and  _71
REMARK   29  A    between atoms: _74  and  _76
REMARK   30  A    between atoms: _76  and  _77
REMARK   31  A    between atoms: _79  and  _81
REMARK   32  A    between atoms: _81  and  _82
REMARK   33  A    between atoms: _85  and  _87
REMARK   34  A    between atoms: _87  and  _88
REMARK   35  A    between atoms: _87  and  _90
REMARK   36  A    between atoms: _90  and  _91
REMARK   37  A    between atoms: _94  and  _96
REMARK   38  A    between atoms: _96  and  _97
REMARK   39  A    between atoms: _96  and  _99
REMARK   40  A    between atoms: _99  and  _100
REMARK   41  A    between atoms: _100  and  _101
REMARK   42  A    between atoms: _104  and  _106
REMARK   43  A    between atoms: _106  and  _107
REMARK   44  A    between atoms: _106  and  _109
REMARK   45  A    between atoms: _109  and  _110
REMARK   46  A    between atoms: _113  and  _115
REMARK   47  A    between atoms: _115  and  _116
REMARK   48  A    between atoms: _115  and  _118
REMARK   49  A    between atoms: _118  and  _119
REMARK   50  A    between atoms: _122  and  _124
REMARK   51  A    between atoms: _124  and  _125
REMARK   52  A    between atoms: _127  and  _129
REMARK   53  A    between atoms: _129  and  _130
REMARK   54  A    between atoms: _129  and  _132
REMARK   55  A    between atoms: _135  and  _137
REMARK   56  A    between atoms: _137  and  _138
REMARK   57  A    between atoms: _137  and  _140
REMARK   58  A    between atoms: _143  and  _145
REMARK   59  A    between atoms: _145  and  _146
REMARK   60  A    between atoms: _145  and  _148
REMARK   61  A    between atoms: _148  and  _149
REMARK   62  A    between atoms: _152  and  _154
REMARK   63  A    between atoms: _154  and  _155
REMARK   64  A    between atoms: _154  and  _157
REMARK   65  A    between atoms: _157  and  _158
REMARK   66  A    between atoms: _158  and  _159
REMARK   67  A    between atoms: _159  and  _160
REMARK   68  A    between atoms: _169  and  _171
REMARK   69  A    between atoms: _171  and  _172
REMARK   70  A    between atoms: _174  and  _176
REMARK   71  A    between atoms: _176  and  _177
REMARK   72  A    between atoms: _176  and  _179
REMARK   73  A    between atoms: _179  and  _180
REMARK   74  A    between atoms: _180  and  _181
REMARK   75  A    between atoms: _186  and  _188
REMARK   76  A    between atoms: _188  and  _189
REMARK   77  A    between atoms: _188  and  _191
REMARK   78  A    between atoms: _191  and  _192
REMARK   79  A    between atoms: _196  and  _197
REMARK   80  A    between atoms: _202  and  _204
REMARK   81  A    between atoms: _204  and  _205
REMARK   82  A    between atoms: _204  and  _207
REMARK   83  A    between atoms: _207  and  _208
REMARK   84  A    between atoms: _213  and  _215
REMARK   85  A    between atoms: _215  and  _216
REMARK   86  A    between atoms: _215  and  _218
REMARK   87  A    between atoms: _218  and  _219
REMARK   88  A    between atoms: _225  and  _227
REMARK   89  A    between atoms: _227  and  _228
REMARK   90  A    between atoms: _227  and  _230
REMARK   91  A    between atoms: _230  and  _231
REMARK   92  A    between atoms: _234  and  _236
REMARK   93  A    between atoms: _236  and  _237
REMARK   94  A    between atoms: _236  and  _239
REMARK   95  A    between atoms: _239  and  _240
REMARK   96  A    between atoms: _245  and  _246
REMARK   97  A    between atoms: _248  and  _250
REMARK   98  A    between atoms: _250  and  _251
REMARK   99  A    between atoms: _250  and  _253
REMARK  100  A    between atoms: _256  and  _258
REMARK  101  A    between atoms: _258  and  _259
REMARK  102  A    between atoms: _258  and  _261
REMARK  103  A    between atoms: _263  and  _265
REMARK  104  A    between atoms: _265  and  _266
REMARK  105  A    between atoms: _269  and  _271
REMARK  106  A    between atoms: _271  and  _272
REMARK  107  A    between atoms: _271  and  _274
REMARK  108  A    between atoms: _277  and  _279
REMARK  109  A    between atoms: _279  and  _280
REMARK  110  A    between atoms: _279  and  _282
REMARK  111  A    between atoms: _285  and  _287
REMARK  112  A    between atoms: _287  and  _288
REMARK  113  A    between atoms: _287  and  _290
REMARK  114  A    between atoms: _290  and  _291
REMARK  115  A    between atoms: _294  and  _296
REMARK  116  A    between atoms: _296  and  _297
REMARK  117  A    between atoms: _296  and  _299
REMARK  118  A    between atoms: _299  and  _300
REMARK  119  A    between atoms: _303  and  _305
REMARK  120  A    between atoms: _305  and  _306
REMARK  121  A    between atoms: _305  and  _308
REMARK  122  A    between atoms: _311  and  _313
REMARK  123  A    between atoms: _313  and  _314
REMARK  124  A    between atoms: _313  and  _316
REMARK  125  A    between atoms: _319  and  _321
REMARK  126  A    between atoms: _321  and  _322
REMARK  127  A    between atoms: _325  and  _327
REMARK  128  A    between atoms: _327  and  _328
REMARK  129  A    between atoms: _327  and  _330
REMARK  130  A    between atoms: _330  and  _331
REMARK  131  A    between atoms: _335  and  _336
REMARK  132  A    between atoms: _341  and  _343
REMARK  133  A    between atoms: _343  and  _344
REMARK  134  A    between atoms: _343  and  _346
REMARK  135  A    between atoms: _346  and  _347
REMARK  136  A    between atoms: _350  and  _352
REMARK  137  A    between atoms: _352  and  _353
REMARK  138  A    between atoms: _356  and  _358
REMARK  139  A    between atoms: _358  and  _359
REMARK  140  A    between atoms: _358  and  _361
REMARK  141  A    between atoms: _361  and  _362
REMARK  142  A    between atoms: _367  and  _369
REMARK  143  A    between atoms: _369  and  _370
REMARK  144  A    between atoms: _372  and  _374
REMARK  145  A    between atoms: _374  and  _375
REMARK  146  A    between atoms: _374  and  _377
REMARK  147  A    between atoms: _380  and  _382
REMARK  148  A    between atoms: _382  and  _383
REMARK  149  A    between atoms: _382  and  _385
REMARK  150  A    between atoms: _385  and  _386
REMARK  151  A    between atoms: _389  and  _391
REMARK  152  A    between atoms: _391  and  _392
REMARK  153  A    between atoms: _391  and  _394
REMARK  154  A    between atoms: _394  and  _395
REMARK  155  A    between atoms: _398  and  _400
REMARK  156  A    between atoms: _400  and  _401
REMARK  157  A    between atoms: _400  and  _403
REMARK  158  A    between atoms: _403  and  _404
REMARK  159  A    between atoms: _407  and  _409
REMARK  160  A    between atoms: _409  and  _410
REMARK  161  A    between atoms: _409  and  _412
REMARK  162  A    between atoms: _412  and  _413
REMARK  163  A    between atoms: _418  and  _420
REMARK  164  A    between atoms: _420  and  _421
REMARK  165  A    between atoms: _420  and  _423
REMARK  166  A    between atoms: _423  and  _424
REMARK  167  A    between atoms: _424  and  _425
REMARK  168  A    between atoms: _430  and  _432
REMARK  169  A    between atoms: _432  and  _433
REMARK  170  A    between atoms: _432  and  _435
REMARK  171  A    between atoms: _435  and  _436
REMARK  172  A    between atoms: _439  and  _441
REMARK  173  A    between atoms: _441  and  _442
REMARK  174  A    between atoms: _441  and  _444
REMARK  175  A    between atoms: _444  and  _445
REMARK  176  A    between atoms: _445  and  _446
REMARK  177  A    between atoms: _446  and  _447
REMARK  178  A    between atoms: _456  and  _458
REMARK  179  A    between atoms: _458  and  _459
REMARK  180  A    between atoms: _458  and  _461
REMARK  181  A    between atoms: _461  and  _462
REMARK  182  A    between atoms: _462  and  _463
REMARK  183  A    between atoms: _466  and  _468
REMARK  184  A    between atoms: _468  and  _469
REMARK  185  A    between atoms: _468  and  _471
REMARK  186  A    between atoms: _471  and  _472
REMARK  187  A    between atoms: _472  and  _473
REMARK  188  A    between atoms: _473  and  _474
REMARK  189  A    between atoms: _474  and  _475
REMARK  190  A    between atoms: _479  and  _481
REMARK  191  A    between atoms: _481  and  _482
REMARK  192  A    between atoms: _484  and  _486
REMARK  193  A    between atoms: _486  and  _487
REMARK  194  A    between atoms: _490  and  _492
REMARK  195  A    between atoms: _492  and  _493
REMARK  196  A    between atoms: _492  and  _495
REMARK  197  A    between atoms: _495  and  _496
REMARK  198  A    between atoms: _496  and  _497
REMARK  199  A    between atoms: _502  and  _504
REMARK  200  A    between atoms: _504  and  _505
REMARK  201  A    between atoms: _508  and  _510
REMARK  202  A    between atoms: _510  and  _511
REMARK  203  A    between atoms: _510  and  _513
REMARK  204  A    between atoms: _513  and  _514
REMARK  205  A    between atoms: _517  and  _519
REMARK  206  A    between atoms: _519  and  _520
REMARK  207  A    between atoms: _519  and  _522
REMARK  208  A    between atoms: _525  and  _527
REMARK  209  A    between atoms: _527  and  _528
REMARK  210  A    between atoms: _531  and  _533
REMARK  211  A    between atoms: _533  and  _534
REMARK  212  A    between atoms: _537  and  _539
REMARK  213  A    between atoms: _539  and  _540
REMARK  214  A    between atoms: _539  and  _542
REMARK  215  A    between atoms: _542  and  _543
REMARK                            x       y       z     vdW  Elec       q    Type
REMARK                         _______ _______ _______ _____ _____    ______ ____
ROOT
ATOM      1  O   HOH     1     -22.340   2.421  16.434  0.00  0.00    +0.000 OA
ENDROOT
TORSDOF 0
REMARK  Name = ../refined-set-2016/2c92/2c92_pocket.pdb
REMARK  215 active torsions:
REMARK  status: ('A' for Active; 'I' for Inactive)
REMARK    1  A    between atoms: _1  and  _3
REMARK    2  A    between atoms: _3  and  _4
REMARK    3  A    between atoms: _7  and  _9
REMARK    4  A    between atoms: _9  and  _10
REMARK    5  A    between atoms: _9  and  _12
REMARK    6  A    between atoms: _12  and  _13
REMARK    7  A    between atoms: _15  and  _17
REMARK    8  A    between atoms: _17  and  _18
REMARK    9  A    between atoms: _17  and  _20
REMARK   10  A    between atoms: _20  and  _21
REMARK   11  A    between atoms: _23  and  _25
REMARK   12  A    between atoms: _25  and  _26
REMARK   13  A    between atoms: _25  and  _28
REMARK   14  A    between atoms: _28  and  _29
REMARK   15  A    between atoms: _39  and  _41
REMARK   16  A    between atoms: _41  and  _42
REMARK   17  A    between atoms: _41  and  _44
REMARK   18  A    between atoms: _44  and  _45
REMARK   19  A    between atoms: _50  and  _52
REMARK   20  A    between atoms: _52  and  _53
REMARK   21  A    between atoms: _52  and  _55
REMARK   22  A    between atoms: _57  and  _59
REMARK   23  A    between atoms: _59  and  _60
REMARK   24  A    between atoms: _59  and  _62
REMARK   25  A    between atoms: _65  and  _67
REMARK   26  A    between atoms: _67  and  _68
REMARK   27  A    between atoms: _67  and  _70
REMARK   28  A    between atoms: _70  and  _71
REMARK   29  A    between atoms: _74  and  _76
REMARK   30  A    between atoms: _76  and  _77
REMARK   31  A    between atoms: _79  and  _81
REMARK   32  A    between atoms: _81  and  _82
REMARK   33  A    between atoms: _85  and  _87
REMARK   34  A    between atoms: _87  and  _88
REMARK   35  A    between atoms: _87  and  _90
REMARK   36  A    between atoms: _90  and  _91
REMARK   37  A    between atoms: _94  and  _96
REMARK   38  A    between atoms: _96  and  _97
REMARK   39  A    between atoms: _96  and  _99
REMARK   40  A    between atoms: _99  and  _100
REMARK   41  A    between atoms: _100  and  _101
REMARK   42  A    between atoms: _104  and  _106
REMARK   43  A    between atoms: _106  and  _107
REMARK   44  A    between atoms: _106  and  _109
REMARK   45  A    between atoms: _109  and  _110
REMARK   46  A    between atoms: _113  and  _115
REMARK   47  A    between atoms: _115  and  _116
REMARK   48  A    between atoms: _115  and  _118
REMARK   49  A    between atoms: _118  and  _119
REMARK   50  A    between atoms: _122  and  _124
REMARK   51  A    between atoms: _124  and  _125
REMARK   52  A    between atoms: _127  and  _129
REMARK   53  A    between atoms: _129  and  _130
REMARK   54  A    between atoms: _129  and  _132
REMARK   55  A    between atoms: _135  and  _137
REMARK   56  A    between atoms: _137  and  _138
REMARK   57  A    between atoms: _137  and  _140
REMARK   58  A    between atoms: _143  and  _145
REMARK   59  A    between atoms: _145  and  _146
REMARK   60  A    between atoms: _145  and  _148
REMARK   61  A    between atoms: _148  and  _149
REMARK   62  A    between atoms: _152  and  _154
REMARK   63  A    between atoms: _154  and  _155
REMARK   64  A    between atoms: _154  and  _157
REMARK   65  A    between atoms: _157  and  _158
REMARK   66  A    between atoms: _158  and  _159
REMARK   67  A    between atoms: _159  and  _160
REMARK   68  A    between atoms: _169  and  _171
REMARK   69  A    between atoms: _171  and  _172
REMARK   70  A    between atoms: _174  and  _176
REMARK   71  A    between atoms: _176  and  _177
REMARK   72  A    between atoms: _176  and  _179
REMARK   73  A    between atoms: _179  and  _180
REMARK   74  A    between atoms: _180  and  _181
REMARK   75  A    between atoms: _186  and  _188
REMARK   76  A    between atoms: _188  and  _189
REMARK   77  A    between atoms: _188  and  _191
REMARK   78  A    between atoms: _191  and  _192
REMARK   79  A    between atoms: _196  and  _197
REMARK   80  A    between atoms: _202  and  _204
REMARK   81  A    between atoms: _204  and  _205
REMARK   82  A    between atoms: _204  and  _207
REMARK   83  A    between atoms: _207  and  _208
REMARK   84  A    between atoms: _213  and  _215
REMARK   85  A    between atoms: _215  and  _216
REMARK   86  A    between atoms: _215  and  _218
REMARK   87  A    between atoms: _218  and  _219
REMARK   88  A    between atoms: _225  and  _227
REMARK   89  A    between atoms: _227  and  _228
REMARK   90  A    between atoms: _227  and  _230
REMARK   91  A    between atoms: _230  and  _231
REMARK   92  A    between atoms: _234  and  _236
REMARK   93  A    between atoms: _236  and  _237
REMARK   94  A    between atoms: _236  and  _239
REMARK   95  A    between atoms: _239  and  _240
REMARK   96  A    between atoms: _245  and  _246
REMARK   97  A    between atoms: _248  and  _250
REMARK   98  A    between atoms: _250  and  _251
REMARK   99  A    between atoms: _250  and  _253
REMARK  100  A    between atoms: _256  and  _258
REMARK  101  A    between atoms: _258  and  _259
REMARK  102  A    between atoms: _258  and  _261
REMARK  103  A    between atoms: _263  and  _265
REMARK  104  A    between atoms: _265  and  _266
REMARK  105  A    between atoms: _269  and  _271
REMARK  106  A    between atoms: _271  and  _272
REMARK  107  A    between atoms: _271  and  _274
REMARK  108  A    between atoms: _277  and  _279
REMARK  109  A    between atoms: _279  and  _280
REMARK  110  A    between atoms: _279  and  _282
REMARK  111  A    between atoms: _285  and  _287
REMARK  112  A    between atoms: _287  and  _288
REMARK  113  A    between atoms: _287  and  _290
REMARK  114  A    between atoms: _290  and  _291
REMARK  115  A    between atoms: _294  and  _296
REMARK  116  A    between atoms: _296  and  _297
REMARK  117  A    between atoms: _296  and  _299
REMARK  118  A    between atoms: _299  and  _300
REMARK  119  A    between atoms: _303  and  _305
REMARK  120  A    between atoms: _305  and  _306
REMARK  121  A    between atoms: _305  and  _308
REMARK  122  A    between atoms: _311  and  _313
REMARK  123  A    between atoms: _313  and  _314
REMARK  124  A    between atoms: _313  and  _316
REMARK  125  A    between atoms: _319  and  _321
REMARK  126  A    between atoms: _321  and  _322
REMARK  127  A    between atoms: _325  and  _327
REMARK  128  A    between atoms: _327  and  _328
REMARK  129  A    between atoms: _327  and  _330
REMARK  130  A    between atoms: _330  and  _331
REMARK  131  A    between atoms: _335  and  _336
REMARK  132  A    between atoms: _341  and  _343
REMARK  133  A    between atoms: _343  and  _344
REMARK  134  A    between atoms: _343  and  _346
REMARK  135  A    between atoms: _346  and  _347
REMARK  136  A    between atoms: _350  and  _352
REMARK  137  A    between atoms: _352  and  _353
REMARK  138  A    between atoms: _356  and  _358
REMARK  139  A    between atoms: _358  and  _359
REMARK  140  A    between atoms: _358  and  _361
REMARK  141  A    between atoms: _361  and  _362
REMARK  142  A    between atoms: _367  and  _369
REMARK  143  A    between atoms: _369  and  _370
REMARK  144  A    between atoms: _372  and  _374
REMARK  145  A    between atoms: _374  and  _375
REMARK  146  A    between atoms: _374  and  _377
REMARK  147  A    between atoms: _380  and  _382
REMARK  148  A    between atoms: _382  and  _383
REMARK  149  A    between atoms: _382  and  _385
REMARK  150  A    between atoms: _385  and  _386
REMARK  151  A    between atoms: _389  and  _391
REMARK  152  A    between atoms: _391  and  _392
REMARK  153  A    between atoms: _391  and  _394
REMARK  154  A    between atoms: _394  and  _395
REMARK  155  A    between atoms: _398  and  _400
REMARK  156  A    between atoms: _400  and  _401
REMARK  157  A    between atoms: _400  and  _403
REMARK  158  A    between atoms: _403  and  _404
REMARK  159  A    between atoms: _407  and  _409
REMARK  160  A    between atoms: _409  and  _410
REMARK  161  A    between atoms: _409  and  _412
REMARK  162  A    between atoms: _412  and  _413
REMARK  163  A    between atoms: _418  and  _420
REMARK  164  A    between atoms: _420  and  _421
REMARK  165  A    between atoms: _420  and  _423
REMARK  166  A    between atoms: _423  and  _424
REMARK  167  A    between atoms: _424  and  _425
REMARK  168  A    between atoms: _430  and  _432
REMARK  169  A    between atoms: _432  and  _433
REMARK  170  A    between atoms: _432  and  _435
REMARK  171  A    between atoms: _435  and  _436
REMARK  172  A    between atoms: _439  and  _441
REMARK  173  A    between atoms: _441  and  _442
REMARK  174  A    between atoms: _441  and  _444
REMARK  175  A    between atoms: _444  and  _445
REMARK  176  A    between atoms: _445  and  _446
REMARK  177  A    between atoms: _446  and  _447
REMARK  178  A    between atoms: _456  and  _458
REMARK  179  A    between atoms: _458  and  _459
REMARK  180  A    between atoms: _458  and  _461
REMARK  181  A    between atoms: _461  and  _462
REMARK  182  A    between atoms: _462  and  _463
REMARK  183  A    between atoms: _466  and  _468
REMARK  184  A    between atoms: _468  and  _469
REMARK  185  A    between atoms: _468  and  _471
REMARK  186  A    between atoms: _471  and  _472
REMARK  187  A    between atoms: _472  and  _473
REMARK  188  A    between atoms: _473  and  _474
REMARK  189  A    between atoms: _474  and  _475
REMARK  190  A    between atoms: _479  and  _481
REMARK  191  A    between atoms: _481  and  _482
REMARK  192  A    between atoms: _484  and  _486
REMARK  193  A    between atoms: _486  and  _487
REMARK  194  A    between atoms: _490  and  _492
REMARK  195  A    between atoms: _492  and  _493
REMARK  196  A    between atoms: _492  and  _495
REMARK  197  A    between atoms: _495  and  _496
REMARK  198  A    between atoms: _496  and  _497
REMARK  199  A    between atoms: _502  and  _504
REMARK  200  A    between atoms: _504  and  _505
REMARK  201  A    between atoms: _508  and  _510
REMARK  202  A    between atoms: _510  and  _511
REMARK  203  A    between atoms: _510  and  _513
REMARK  204  A    between atoms: _513  and  _514
REMARK  205  A    between atoms: _517  and  _519
REMARK  206  A    between atoms: _519  and  _520
REMARK  207  A    between atoms: _519  and  _522
REMARK  208  A    between atoms: _525  and  _527
REMARK  209  A    between atoms: _527  and  _528
REMARK  210  A    between atoms: _531  and  _533
REMARK  211  A    between atoms: _533  and  _534
REMARK  212  A    between atoms: _537  and  _539
REMARK  213  A    between atoms: _539  and  _540
REMARK  214  A    between atoms: _539  and  _542
REMARK  215  A    between atoms: _542  and  _543
REMARK                            x       y       z     vdW  Elec       q    Type
REMARK                         _______ _______ _______ _____ _____    ______ ____
ROOT
ATOM      1  O   HOH     1     -27.403   2.034  17.270  0.00  0.00    +0.000 OA
ENDROOT
TORSDOF 0
REMARK  Name = ../refined-set-2016/2c92/2c92_pocket.pdb
REMARK  215 active torsions:
REMARK  status: ('A' for Active; 'I' for Inactive)
REMARK    1  A    between atoms: _1  and  _3
REMARK    2  A    between atoms: _3  and  _4
REMARK    3  A    between atoms: _7  and  _9
REMARK    4  A    between atoms: _9  and  _10
REMARK    5  A    between atoms: _9  and  _12
REMARK    6  A    between atoms: _12  and  _13
REMARK    7  A    between atoms: _15  and  _17
REMARK    8  A    between atoms: _17  and  _18
REMARK    9  A    between atoms: _17  and  _20
REMARK   10  A    between atoms: _20  and  _21
REMARK   11  A    between atoms: _23  and  _25
REMARK   12  A    between atoms: _25  and  _26
REMARK   13  A    between atoms: _25  and  _28
REMARK   14  A    between atoms: _28  and  _29
REMARK   15  A    between atoms: _39  and  _41
REMARK   16  A    between atoms: _41  and  _42
REMARK   17  A    between atoms: _41  and  _44
REMARK   18  A    between atoms: _44  and  _45
REMARK   19  A    between atoms: _50  and  _52
REMARK   20  A    between atoms: _52  and  _53
REMARK   21  A    between atoms: _52  and  _55
REMARK   22  A    between atoms: _57  and  _59
REMARK   23  A    between atoms: _59  and  _60
REMARK   24  A    between atoms: _59  and  _62
REMARK   25  A    between atoms: _65  and  _67
REMARK   26  A    between atoms: _67  and  _68
REMARK   27  A    between atoms: _67  and  _70
REMARK   28  A    between atoms: _70  and  _71
REMARK   29  A    between atoms: _74  and  _76
REMARK   30  A    between atoms: _76  and  _77
REMARK   31  A    between atoms: _79  and  _81
REMARK   32  A    between atoms: _81  and  _82
REMARK   33  A    between atoms: _85  and  _87
REMARK   34  A    between atoms: _87  and  _88
REMARK   35  A    between atoms: _87  and  _90
REMARK   36  A    between atoms: _90  and  _91
REMARK   37  A    between atoms: _94  and  _96
REMARK   38  A    between atoms: _96  and  _97
REMARK   39  A    between atoms: _96  and  _99
REMARK   40  A    between atoms: _99  and  _100
REMARK   41  A    between atoms: _100  and  _101
REMARK   42  A    between atoms: _104  and  _106
REMARK   43  A    between atoms: _106  and  _107
REMARK   44  A    between atoms: _106  and  _109
REMARK   45  A    between atoms: _109  and  _110
REMARK   46  A    between atoms: _113  and  _115
REMARK   47  A    between atoms: _115  and  _116
REMARK   48  A    between atoms: _115  and  _118
REMARK   49  A    between atoms: _118  and  _119
REMARK   50  A    between atoms: _122  and  _124
REMARK   51  A    between atoms: _124  and  _125
REMARK   52  A    between atoms: _127  and  _129
REMARK   53  A    between atoms: _129  and  _130
REMARK   54  A    between atoms: _129  and  _132
REMARK   55  A    between atoms: _135  and  _137
REMARK   56  A    between atoms: _137  and  _138
REMARK   57  A    between atoms: _137  and  _140
REMARK   58  A    between atoms: _143  and  _145
REMARK   59  A    between atoms: _145  and  _146
REMARK   60  A    between atoms: _145  and  _148
REMARK   61  A    between atoms: _148  and  _149
REMARK   62  A    between atoms: _152  and  _154
REMARK   63  A    between atoms: _154  and  _155
REMARK   64  A    between atoms: _154  and  _157
REMARK   65  A    between atoms: _157  and  _158
REMARK   66  A    between atoms: _158  and  _159
REMARK   67  A    between atoms: _159  and  _160
REMARK   68  A    between atoms: _169  and  _171
REMARK   69  A    between atoms: _171  and  _172
REMARK   70  A    between atoms: _174  and  _176
REMARK   71  A    between atoms: _176  and  _177
REMARK   72  A    between atoms: _176  and  _179
REMARK   73  A    between atoms: _179  and  _180
REMARK   74  A    between atoms: _180  and  _181
REMARK   75  A    between atoms: _186  and  _188
REMARK   76  A    between atoms: _188  and  _189
REMARK   77  A    between atoms: _188  and  _191
REMARK   78  A    between atoms: _191  and  _192
REMARK   79  A    between atoms: _196  and  _197
REMARK   80  A    between atoms: _202  and  _204
REMARK   81  A    between atoms: _204  and  _205
REMARK   82  A    between atoms: _204  and  _207
REMARK   83  A    between atoms: _207  and  _208
REMARK   84  A    between atoms: _213  and  _215
REMARK   85  A    between atoms: _215  and  _216
REMARK   86  A    between atoms: _215  and  _218
REMARK   87  A    between atoms: _218  and  _219
REMARK   88  A    between atoms: _225  and  _227
REMARK   89  A    between atoms: _227  and  _228
REMARK   90  A    between atoms: _227  and  _230
REMARK   91  A    between atoms: _230  and  _231
REMARK   92  A    between atoms: _234  and  _236
REMARK   93  A    between atoms: _236  and  _237
REMARK   94  A    between atoms: _236  and  _239
REMARK   95  A    between atoms: _239  and  _240
REMARK   96  A    between atoms: _245  and  _246
REMARK   97  A    between atoms: _248  and  _250
REMARK   98  A    between atoms: _250  and  _251
REMARK   99  A    between atoms: _250  and  _253
REMARK  100  A    between atoms: _256  and  _258
REMARK  101  A    between atoms: _258  and  _259
REMARK  102  A    between atoms: _258  and  _261
REMARK  103  A    between atoms: _263  and  _265
REMARK  104  A    between atoms: _265  and  _266
REMARK  105  A    between atoms: _269  and  _271
REMARK  106  A    between atoms: _271  and  _272
REMARK  107  A    between atoms: _271  and  _274
REMARK  108  A    between atoms: _277  and  _279
REMARK  109  A    between atoms: _279  and  _280
REMARK  110  A    between atoms: _279  and  _282
REMARK  111  A    between atoms: _285  and  _287
REMARK  112  A    between atoms: _287  and  _288
REMARK  113  A    between atoms: _287  and  _290
REMARK  114  A    between atoms: _290  and  _291
REMARK  115  A    between atoms: _294  and  _296
REMARK  116  A    between atoms: _296  and  _297
REMARK  117  A    between atoms: _296  and  _299
REMARK  118  A    between atoms: _299  and  _300
REMARK  119  A    between atoms: _303  and  _305
REMARK  120  A    between atoms: _305  and  _306
REMARK  121  A    between atoms: _305  and  _308
REMARK  122  A    between atoms: _311  and  _313
REMARK  123  A    between atoms: _313  and  _314
REMARK  124  A    between atoms: _313  and  _316
REMARK  125  A    between atoms: _319  and  _321
REMARK  126  A    between atoms: _321  and  _322
REMARK  127  A    between atoms: _325  and  _327
REMARK  128  A    between atoms: _327  and  _328
REMARK  129  A    between atoms: _327  and  _330
REMARK  130  A    between atoms: _330  and  _331
REMARK  131  A    between atoms: _335  and  _336
REMARK  132  A    between atoms: _341  and  _343
REMARK  133  A    between atoms: _343  and  _344
REMARK  134  A    between atoms: _343  and  _346
REMARK  135  A    between atoms: _346  and  _347
REMARK  136  A    between atoms: _350  and  _352
REMARK  137  A    between atoms: _352  and  _353
REMARK  138  A    between atoms: _356  and  _358
REMARK  139  A    between atoms: _358  and  _359
REMARK  140  A    between atoms: _358  and  _361
REMARK  141  A    between atoms: _361  and  _362
REMARK  142  A    between atoms: _367  and  _369
REMARK  143  A    between atoms: _369  and  _370
REMARK  144  A    between atoms: _372  and  _374
REMARK  145  A    between atoms: _374  and  _375
REMARK  146  A    between atoms: _374  and  _377
REMARK  147  A    between atoms: _380  and  _382
REMARK  148  A    between atoms: _382  and  _383
REMARK  149  A    between atoms: _382  and  _385
REMARK  150  A    between atoms: _385  and  _386
REMARK  151  A    between atoms: _389  and  _391
REMARK  152  A    between atoms: _391  and  _392
REMARK  153  A    between atoms: _391  and  _394
REMARK  154  A    between atoms: _394  and  _395
REMARK  155  A    between atoms: _398  and  _400
REMARK  156  A    between atoms: _400  and  _401
REMARK  157  A    between atoms: _400  and  _403
REMARK  158  A    between atoms: _403  and  _404
REMARK  159  A    between atoms: _407  and  _409
REMARK  160  A    between atoms: _409  and  _410
REMARK  161  A    between atoms: _409  and  _412
REMARK  162  A    between atoms: _412  and  _413
REMARK  163  A    between atoms: _418  and  _420
REMARK  164  A    between atoms: _420  and  _421
REMARK  165  A    between atoms: _420  and  _423
REMARK  166  A    between atoms: _423  and  _424
REMARK  167  A    between atoms: _424  and  _425
REMARK  168  A    between atoms: _430  and  _432
REMARK  169  A    between atoms: _432  and  _433
REMARK  170  A    between atoms: _432  and  _435
REMARK  171  A    between atoms: _435  and  _436
REMARK  172  A    between atoms: _439  and  _441
REMARK  173  A    between atoms: _441  and  _442
REMARK  174  A    between atoms: _441  and  _444
REMARK  175  A    between atoms: _444  and  _445
REMARK  176  A    between atoms: _445  and  _446
REMARK  177  A    between atoms: _446  and  _447
REMARK  178  A    between atoms: _456  and  _458
REMARK  179  A    between atoms: _458  and  _459
REMARK  180  A    between atoms: _458  and  _461
REMARK  181  A    between atoms: _461  and  _462
REMARK  182  A    between atoms: _462  and  _463
REMARK  183  A    between atoms: _466  and  _468
REMARK  184  A    between atoms: _468  and  _469
REMARK  185  A    between atoms: _468  and  _471
REMARK  186  A    between atoms: _471  and  _472
REMARK  187  A    between atoms: _472  and  _473
REMARK  188  A    between atoms: _473  and  _474
REMARK  189  A    between atoms: _474  and  _475
REMARK  190  A    between atoms: _479  and  _481
REMARK  191  A    between atoms: _481  and  _482
REMARK  192  A    between atoms: _484  and  _486
REMARK  193  A    between atoms: _486  and  _487
REMARK  194  A    between atoms: _490  and  _492
REMARK  195  A    between atoms: _492  and  _493
REMARK  196  A    between atoms: _492  and  _495
REMARK  197  A    between atoms: _495  and  _496
REMARK  198  A    between atoms: _496  and  _497
REMARK  199  A    between atoms: _502  and  _504
REMARK  200  A    between atoms: _504  and  _505
REMARK  201  A    between atoms: _508  and  _510
REMARK  202  A    between atoms: _510  and  _511
REMARK  203  A    between atoms: _510  and  _513
REMARK  204  A    between atoms: _513  and  _514
REMARK  205  A    between atoms: _517  and  _519
REMARK  206  A    between atoms: _519  and  _520
REMARK  207  A    between atoms: _519  and  _522
REMARK  208  A    between atoms: _525  and  _527
REMARK  209  A    between atoms: _527  and  _528
REMARK  210  A    between atoms: _531  and  _533
REMARK  211  A    between atoms: _533  and  _534
REMARK  212  A    between atoms: _537  and  _539
REMARK  213  A    between atoms: _539  and  _540
REMARK  214  A    between atoms: _539  and  _542
REMARK  215  A    between atoms: _542  and  _543
REMARK                            x       y       z     vdW  Elec       q    Type
REMARK                         _______ _______ _______ _____ _____    ______ ____
ROOT
ATOM      1  O   HOH     1     -24.779   3.315  17.351  0.00  0.00    +0.000 OA
ENDROOT
TORSDOF 0
REMARK  Name = ../refined-set-2016/2c92/2c92_pocket.pdb
REMARK  215 active torsions:
REMARK  status: ('A' for Active; 'I' for Inactive)
REMARK    1  A    between atoms: _1  and  _3
REMARK    2  A    between atoms: _3  and  _4
REMARK    3  A    between atoms: _7  and  _9
REMARK    4  A    between atoms: _9  and  _10
REMARK    5  A    between atoms: _9  and  _12
REMARK    6  A    between atoms: _12  and  _13
REMARK    7  A    between atoms: _15  and  _17
REMARK    8  A    between atoms: _17  and  _18
REMARK    9  A    between atoms: _17  and  _20
REMARK   10  A    between atoms: _20  and  _21
REMARK   11  A    between atoms: _23  and  _25
REMARK   12  A    between atoms: _25  and  _26
REMARK   13  A    between atoms: _25  and  _28
REMARK   14  A    between atoms: _28  and  _29
REMARK   15  A    between atoms: _39  and  _41
REMARK   16  A    between atoms: _41  and  _42
REMARK   17  A    between atoms: _41  and  _44
REMARK   18  A    between atoms: _44  and  _45
REMARK   19  A    between atoms: _50  and  _52
REMARK   20  A    between atoms: _52  and  _53
REMARK   21  A    between atoms: _52  and  _55
REMARK   22  A    between atoms: _57  and  _59
REMARK   23  A    between atoms: _59  and  _60
REMARK   24  A    between atoms: _59  and  _62
REMARK   25  A    between atoms: _65  and  _67
REMARK   26  A    between atoms: _67  and  _68
REMARK   27  A    between atoms: _67  and  _70
REMARK   28  A    between atoms: _70  and  _71
REMARK   29  A    between atoms: _74  and  _76
REMARK   30  A    between atoms: _76  and  _77
REMARK   31  A    between atoms: _79  and  _81
REMARK   32  A    between atoms: _81  and  _82
REMARK   33  A    between atoms: _85  and  _87
REMARK   34  A    between atoms: _87  and  _88
REMARK   35  A    between atoms: _87  and  _90
REMARK   36  A    between atoms: _90  and  _91
REMARK   37  A    between atoms: _94  and  _96
REMARK   38  A    between atoms: _96  and  _97
REMARK   39  A    between atoms: _96  and  _99
REMARK   40  A    between atoms: _99  and  _100
REMARK   41  A    between atoms: _100  and  _101
REMARK   42  A    between atoms: _104  and  _106
REMARK   43  A    between atoms: _106  and  _107
REMARK   44  A    between atoms: _106  and  _109
REMARK   45  A    between atoms: _109  and  _110
REMARK   46  A    between atoms: _113  and  _115
REMARK   47  A    between atoms: _115  and  _116
REMARK   48  A    between atoms: _115  and  _118
REMARK   49  A    between atoms: _118  and  _119
REMARK   50  A    between atoms: _122  and  _124
REMARK   51  A    between atoms: _124  and  _125
REMARK   52  A    between atoms: _127  and  _129
REMARK   53  A    between atoms: _129  and  _130
REMARK   54  A    between atoms: _129  and  _132
REMARK   55  A    between atoms: _135  and  _137
REMARK   56  A    between atoms: _137  and  _138
REMARK   57  A    between atoms: _137  and  _140
REMARK   58  A    between atoms: _143  and  _145
REMARK   59  A    between atoms: _145  and  _146
REMARK   60  A    between atoms: _145  and  _148
REMARK   61  A    between atoms: _148  and  _149
REMARK   62  A    between atoms: _152  and  _154
REMARK   63  A    between atoms: _154  and  _155
REMARK   64  A    between atoms: _154  and  _157
REMARK   65  A    between atoms: _157  and  _158
REMARK   66  A    between atoms: _158  and  _159
REMARK   67  A    between atoms: _159  and  _160
REMARK   68  A    between atoms: _169  and  _171
REMARK   69  A    between atoms: _171  and  _172
REMARK   70  A    between atoms: _174  and  _176
REMARK   71  A    between atoms: _176  and  _177
REMARK   72  A    between atoms: _176  and  _179
REMARK   73  A    between atoms: _179  and  _180
REMARK   74  A    between atoms: _180  and  _181
REMARK   75  A    between atoms: _186  and  _188
REMARK   76  A    between atoms: _188  and  _189
REMARK   77  A    between atoms: _188  and  _191
REMARK   78  A    between atoms: _191  and  _192
REMARK   79  A    between atoms: _196  and  _197
REMARK   80  A    between atoms: _202  and  _204
REMARK   81  A    between atoms: _204  and  _205
REMARK   82  A    between atoms: _204  and  _207
REMARK   83  A    between atoms: _207  and  _208
REMARK   84  A    between atoms: _213  and  _215
REMARK   85  A    between atoms: _215  and  _216
REMARK   86  A    between atoms: _215  and  _218
REMARK   87  A    between atoms: _218  and  _219
REMARK   88  A    between atoms: _225  and  _227
REMARK   89  A    between atoms: _227  and  _228
REMARK   90  A    between atoms: _227  and  _230
REMARK   91  A    between atoms: _230  and  _231
REMARK   92  A    between atoms: _234  and  _236
REMARK   93  A    between atoms: _236  and  _237
REMARK   94  A    between atoms: _236  and  _239
REMARK   95  A    between atoms: _239  and  _240
REMARK   96  A    between atoms: _245  and  _246
REMARK   97  A    between atoms: _248  and  _250
REMARK   98  A    between atoms: _250  and  _251
REMARK   99  A    between atoms: _250  and  _253
REMARK  100  A    between atoms: _256  and  _258
REMARK  101  A    between atoms: _258  and  _259
REMARK  102  A    between atoms: _258  and  _261
REMARK  103  A    between atoms: _263  and  _265
REMARK  104  A    between atoms: _265  and  _266
REMARK  105  A    between atoms: _269  and  _271
REMARK  106  A    between atoms: _271  and  _272
REMARK  107  A    between atoms: _271  and  _274
REMARK  108  A    between atoms: _277  and  _279
REMARK  109  A    between atoms: _279  and  _280
REMARK  110  A    between atoms: _279  and  _282
REMARK  111  A    between atoms: _285  and  _287
REMARK  112  A    between atoms: _287  and  _288
REMARK  113  A    between atoms: _287  and  _290
REMARK  114  A    between atoms: _290  and  _291
REMARK  115  A    between atoms: _294  and  _296
REMARK  116  A    between atoms: _296  and  _297
REMARK  117  A    between atoms: _296  and  _299
REMARK  118  A    between atoms: _299  and  _300
REMARK  119  A    between atoms: _303  and  _305
REMARK  120  A    between atoms: _305  and  _306
REMARK  121  A    between atoms: _305  and  _308
REMARK  122  A    between atoms: _311  and  _313
REMARK  123  A    between atoms: _313  and  _314
REMARK  124  A    between atoms: _313  and  _316
REMARK  125  A    between atoms: _319  and  _321
REMARK  126  A    between atoms: _321  and  _322
REMARK  127  A    between atoms: _325  and  _327
REMARK  128  A    between atoms: _327  and  _328
REMARK  129  A    between atoms: _327  and  _330
REMARK  130  A    between atoms: _330  and  _331
REMARK  131  A    between atoms: _335  and  _336
REMARK  132  A    between atoms: _341  and  _343
REMARK  133  A    between atoms: _343  and  _344
REMARK  134  A    between atoms: _343  and  _346
REMARK  135  A    between atoms: _346  and  _347
REMARK  136  A    between atoms: _350  and  _352
REMARK  137  A    between atoms: _352  and  _353
REMARK  138  A    between atoms: _356  and  _358
REMARK  139  A    between atoms: _358  and  _359
REMARK  140  A    between atoms: _358  and  _361
REMARK  141  A    between atoms: _361  and  _362
REMARK  142  A    between atoms: _367  and  _369
REMARK  143  A    between atoms: _369  and  _370
REMARK  144  A    between atoms: _372  and  _374
REMARK  145  A    between atoms: _374  and  _375
REMARK  146  A    between atoms: _374  and  _377
REMARK  147  A    between atoms: _380  and  _382
REMARK  148  A    between atoms: _382  and  _383
REMARK  149  A    between atoms: _382  and  _385
REMARK  150  A    between atoms: _385  and  _386
REMARK  151  A    between atoms: _389  and  _391
REMARK  152  A    between atoms: _391  and  _392
REMARK  153  A    between atoms: _391  and  _394
REMARK  154  A    between atoms: _394  and  _395
REMARK  155  A    between atoms: _398  and  _400
REMARK  156  A    between atoms: _400  and  _401
REMARK  157  A    between atoms: _400  and  _403
REMARK  158  A    between atoms: _403  and  _404
REMARK  159  A    between atoms: _407  and  _409
REMARK  160  A    between atoms: _409  and  _410
REMARK  161  A    between atoms: _409  and  _412
REMARK  162  A    between atoms: _412  and  _413
REMARK  163  A    between atoms: _418  and  _420
REMARK  164  A    between atoms: _420  and  _421
REMARK  165  A    between atoms: _420  and  _423
REMARK  166  A    between atoms: _423  and  _424
REMARK  167  A    between atoms: _424  and  _425
REMARK  168  A    between atoms: _430  and  _432
REMARK  169  A    between atoms: _432  and  _433
REMARK  170  A    between atoms: _432  and  _435
REMARK  171  A    between atoms: _435  and  _436
REMARK  172  A    between atoms: _439  and  _441
REMARK  173  A    between atoms: _441  and  _442
REMARK  174  A    between atoms: _441  and  _444
REMARK  175  A    between atoms: _444  and  _445
REMARK  176  A    between atoms: _445  and  _446
REMARK  177  A    between atoms: _446  and  _447
REMARK  178  A    between atoms: _456  and  _458
REMARK  179  A    between atoms: _458  and  _459
REMARK  180  A    between atoms: _458  and  _461
REMARK  181  A    between atoms: _461  and  _462
REMARK  182  A    between atoms: _462  and  _463
REMARK  183  A    between atoms: _466  and  _468
REMARK  184  A    between atoms: _468  and  _469
REMARK  185  A    between atoms: _468  and  _471
REMARK  186  A    between atoms: _471  and  _472
REMARK  187  A    between atoms: _472  and  _473
REMARK  188  A    between atoms: _473  and  _474
REMARK  189  A    between atoms: _474  and  _475
REMARK  190  A    between atoms: _479  and  _481
REMARK  191  A    between atoms: _481  and  _482
REMARK  192  A    between atoms: _484  and  _486
REMARK  193  A    between atoms: _486  and  _487
REMARK  194  A    between atoms: _490  and  _492
REMARK  195  A    between atoms: _492  and  _493
REMARK  196  A    between atoms: _492  and  _495
REMARK  197  A    between atoms: _495  and  _496
REMARK  198  A    between atoms: _496  and  _497
REMARK  199  A    between atoms: _502  and  _504
REMARK  200  A    between atoms: _504  and  _505
REMARK  201  A    between atoms: _508  and  _510
REMARK  202  A    between atoms: _510  and  _511
REMARK  203  A    between atoms: _510  and  _513
REMARK  204  A    between atoms: _513  and  _514
REMARK  205  A    between atoms: _517  and  _519
REMARK  206  A    between atoms: _519  and  _520
REMARK  207  A    between atoms: _519  and  _522
REMARK  208  A    between atoms: _525  and  _527
REMARK  209  A    between atoms: _527  and  _528
REMARK  210  A    between atoms: _531  and  _533
REMARK  211  A    between atoms: _533  and  _534
REMARK  212  A    between atoms: _537  and  _539
REMARK  213  A    between atoms: _539  and  _540
REMARK  214  A    between atoms: _539  and  _542
REMARK  215  A    between atoms: _542  and  _543
REMARK                            x       y       z     vdW  Elec       q    Type
REMARK                         _______ _______ _______ _____ _____    ______ ____
ROOT
ATOM      1  O   HOH     1     -21.030   4.037  14.736  0.00  0.00    +0.000 OA
ENDROOT
TORSDOF 0
REMARK  Name = ../refined-set-2016/2c92/2c92_pocket.pdb
REMARK  215 active torsions:
REMARK  status: ('A' for Active; 'I' for Inactive)
REMARK    1  A    between atoms: _1  and  _3
REMARK    2  A    between atoms: _3  and  _4
REMARK    3  A    between atoms: _7  and  _9
REMARK    4  A    between atoms: _9  and  _10
REMARK    5  A    between atoms: _9  and  _12
REMARK    6  A    between atoms: _12  and  _13
REMARK    7  A    between atoms: _15  and  _17
REMARK    8  A    between atoms: _17  and  _18
REMARK    9  A    between atoms: _17  and  _20
REMARK   10  A    between atoms: _20  and  _21
REMARK   11  A    between atoms: _23  and  _25
REMARK   12  A    between atoms: _25  and  _26
REMARK   13  A    between atoms: _25  and  _28
REMARK   14  A    between atoms: _28  and  _29
REMARK   15  A    between atoms: _39  and  _41
REMARK   16  A    between atoms: _41  and  _42
REMARK   17  A    between atoms: _41  and  _44
REMARK   18  A    between atoms: _44  and  _45
REMARK   19  A    between atoms: _50  and  _52
REMARK   20  A    between atoms: _52  and  _53
REMARK   21  A    between atoms: _52  and  _55
REMARK   22  A    between atoms: _57  and  _59
REMARK   23  A    between atoms: _59  and  _60
REMARK   24  A    between atoms: _59  and  _62
REMARK   25  A    between atoms: _65  and  _67
REMARK   26  A    between atoms: _67  and  _68
REMARK   27  A    between atoms: _67  and  _70
REMARK   28  A    between atoms: _70  and  _71
REMARK   29  A    between atoms: _74  and  _76
REMARK   30  A    between atoms: _76  and  _77
REMARK   31  A    between atoms: _79  and  _81
REMARK   32  A    between atoms: _81  and  _82
REMARK   33  A    between atoms: _85  and  _87
REMARK   34  A    between atoms: _87  and  _88
REMARK   35  A    between atoms: _87  and  _90
REMARK   36  A    between atoms: _90  and  _91
REMARK   37  A    between atoms: _94  and  _96
REMARK   38  A    between atoms: _96  and  _97
REMARK   39  A    between atoms: _96  and  _99
REMARK   40  A    between atoms: _99  and  _100
REMARK   41  A    between atoms: _100  and  _101
REMARK   42  A    between atoms: _104  and  _106
REMARK   43  A    between atoms: _106  and  _107
REMARK   44  A    between atoms: _106  and  _109
REMARK   45  A    between atoms: _109  and  _110
REMARK   46  A    between atoms: _113  and  _115
REMARK   47  A    between atoms: _115  and  _116
REMARK   48  A    between atoms: _115  and  _118
REMARK   49  A    between atoms: _118  and  _119
REMARK   50  A    between atoms: _122  and  _124
REMARK   51  A    between atoms: _124  and  _125
REMARK   52  A    between atoms: _127  and  _129
REMARK   53  A    between atoms: _129  and  _130
REMARK   54  A    between atoms: _129  and  _132
REMARK   55  A    between atoms: _135  and  _137
REMARK   56  A    between atoms: _137  and  _138
REMARK   57  A    between atoms: _137  and  _140
REMARK   58  A    between atoms: _143  and  _145
REMARK   59  A    between atoms: _145  and  _146
REMARK   60  A    between atoms: _145  and  _148
REMARK   61  A    between atoms: _148  and  _149
REMARK   62  A    between atoms: _152  and  _154
REMARK   63  A    between atoms: _154  and  _155
REMARK   64  A    between atoms: _154  and  _157
REMARK   65  A    between atoms: _157  and  _158
REMARK   66  A    between atoms: _158  and  _159
REMARK   67  A    between atoms: _159  and  _160
REMARK   68  A    between atoms: _169  and  _171
REMARK   69  A    between atoms: _171  and  _172
REMARK   70  A    between atoms: _174  and  _176
REMARK   71  A    between atoms: _176  and  _177
REMARK   72  A    between atoms: _176  and  _179
REMARK   73  A    between atoms: _179  and  _180
REMARK   74  A    between atoms: _180  and  _181
REMARK   75  A    between atoms: _186  and  _188
REMARK   76  A    between atoms: _188  and  _189
REMARK   77  A    between atoms: _188  and  _191
REMARK   78  A    between atoms: _191  and  _192
REMARK   79  A    between atoms: _196  and  _197
REMARK   80  A    between atoms: _202  and  _204
REMARK   81  A    between atoms: _204  and  _205
REMARK   82  A    between atoms: _204  and  _207
REMARK   83  A    between atoms: _207  and  _208
REMARK   84  A    between atoms: _213  and  _215
REMARK   85  A    between atoms: _215  and  _216
REMARK   86  A    between atoms: _215  and  _218
REMARK   87  A    between atoms: _218  and  _219
REMARK   88  A    between atoms: _225  and  _227
REMARK   89  A    between atoms: _227  and  _228
REMARK   90  A    between atoms: _227  and  _230
REMARK   91  A    between atoms: _230  and  _231
REMARK   92  A    between atoms: _234  and  _236
REMARK   93  A    between atoms: _236  and  _237
REMARK   94  A    between atoms: _236  and  _239
REMARK   95  A    between atoms: _239  and  _240
REMARK   96  A    between atoms: _245  and  _246
REMARK   97  A    between atoms: _248  and  _250
REMARK   98  A    between atoms: _250  and  _251
REMARK   99  A    between atoms: _250  and  _253
REMARK  100  A    between atoms: _256  and  _258
REMARK  101  A    between atoms: _258  and  _259
REMARK  102  A    between atoms: _258  and  _261
REMARK  103  A    between atoms: _263  and  _265
REMARK  104  A    between atoms: _265  and  _266
REMARK  105  A    between atoms: _269  and  _271
REMARK  106  A    between atoms: _271  and  _272
REMARK  107  A    between atoms: _271  and  _274
REMARK  108  A    between atoms: _277  and  _279
REMARK  109  A    between atoms: _279  and  _280
REMARK  110  A    between atoms: _279  and  _282
REMARK  111  A    between atoms: _285  and  _287
REMARK  112  A    between atoms: _287  and  _288
REMARK  113  A    between atoms: _287  and  _290
REMARK  114  A    between atoms: _290  and  _291
REMARK  115  A    between atoms: _294  and  _296
REMARK  116  A    between atoms: _296  and  _297
REMARK  117  A    between atoms: _296  and  _299
REMARK  118  A    between atoms: _299  and  _300
REMARK  119  A    between atoms: _303  and  _305
REMARK  120  A    between atoms: _305  and  _306
REMARK  121  A    between atoms: _305  and  _308
REMARK  122  A    between atoms: _311  and  _313
REMARK  123  A    between atoms: _313  and  _314
REMARK  124  A    between atoms: _313  and  _316
REMARK  125  A    between atoms: _319  and  _321
REMARK  126  A    between atoms: _321  and  _322
REMARK  127  A    between atoms: _325  and  _327
REMARK  128  A    between atoms: _327  and  _328
REMARK  129  A    between atoms: _327  and  _330
REMARK  130  A    between atoms: _330  and  _331
REMARK  131  A    between atoms: _335  and  _336
REMARK  132  A    between atoms: _341  and  _343
REMARK  133  A    between atoms: _343  and  _344
REMARK  134  A    between atoms: _343  and  _346
REMARK  135  A    between atoms: _346  and  _347
REMARK  136  A    between atoms: _350  and  _352
REMARK  137  A    between atoms: _352  and  _353
REMARK  138  A    between atoms: _356  and  _358
REMARK  139  A    between atoms: _358  and  _359
REMARK  140  A    between atoms: _358  and  _361
REMARK  141  A    between atoms: _361  and  _362
REMARK  142  A    between atoms: _367  and  _369
REMARK  143  A    between atoms: _369  and  _370
REMARK  144  A    between atoms: _372  and  _374
REMARK  145  A    between atoms: _374  and  _375
REMARK  146  A    between atoms: _374  and  _377
REMARK  147  A    between atoms: _380  and  _382
REMARK  148  A    between atoms: _382  and  _383
REMARK  149  A    between atoms: _382  and  _385
REMARK  150  A    between atoms: _385  and  _386
REMARK  151  A    between atoms: _389  and  _391
REMARK  152  A    between atoms: _391  and  _392
REMARK  153  A    between atoms: _391  and  _394
REMARK  154  A    between atoms: _394  and  _395
REMARK  155  A    between atoms: _398  and  _400
REMARK  156  A    between atoms: _400  and  _401
REMARK  157  A    between atoms: _400  and  _403
REMARK  158  A    between atoms: _403  and  _404
REMARK  159  A    between atoms: _407  and  _409
REMARK  160  A    between atoms: _409  and  _410
REMARK  161  A    between atoms: _409  and  _412
REMARK  162  A    between atoms: _412  and  _413
REMARK  163  A    between atoms: _418  and  _420
REMARK  164  A    between atoms: _420  and  _421
REMARK  165  A    between atoms: _420  and  _423
REMARK  166  A    between atoms: _423  and  _424
REMARK  167  A    between atoms: _424  and  _425
REMARK  168  A    between atoms: _430  and  _432
REMARK  169  A    between atoms: _432  and  _433
REMARK  170  A    between atoms: _432  and  _435
REMARK  171  A    between atoms: _435  and  _436
REMARK  172  A    between atoms: _439  and  _441
REMARK  173  A    between atoms: _441  and  _442
REMARK  174  A    between atoms: _441  and  _444
REMARK  175  A    between atoms: _444  and  _445
REMARK  176  A    between atoms: _445  and  _446
REMARK  177  A    between atoms: _446  and  _447
REMARK  178  A    between atoms: _456  and  _458
REMARK  179  A    between atoms: _458  and  _459
REMARK  180  A    between atoms: _458  and  _461
REMARK  181  A    between atoms: _461  and  _462
REMARK  182  A    between atoms: _462  and  _463
REMARK  183  A    between atoms: _466  and  _468
REMARK  184  A    between atoms: _468  and  _469
REMARK  185  A    between atoms: _468  and  _471
REMARK  186  A    between atoms: _471  and  _472
REMARK  187  A    between atoms: _472  and  _473
REMARK  188  A    between atoms: _473  and  _474
REMARK  189  A    between atoms: _474  and  _475
REMARK  190  A    between atoms: _479  and  _481
REMARK  191  A    between atoms: _481  and  _482
REMARK  192  A    between atoms: _484  and  _486
REMARK  193  A    between atoms: _486  and  _487
REMARK  194  A    between atoms: _490  and  _492
REMARK  195  A    between atoms: _492  and  _493
REMARK  196  A    between atoms: _492  and  _495
REMARK  197  A    between atoms: _495  and  _496
REMARK  198  A    between atoms: _496  and  _497
REMARK  199  A    between atoms: _502  and  _504
REMARK  200  A    between atoms: _504  and  _505
REMARK  201  A    between atoms: _508  and  _510
REMARK  202  A    between atoms: _510  and  _511
REMARK  203  A    between atoms: _510  and  _513
REMARK  204  A    between atoms: _513  and  _514
REMARK  205  A    between atoms: _517  and  _519
REMARK  206  A    between atoms: _519  and  _520
REMARK  207  A    between atoms: _519  and  _522
REMARK  208  A    between atoms: _525  and  _527
REMARK  209  A    between atoms: _527  and  _528
REMARK  210  A    between atoms: _531  and  _533
REMARK  211  A    between atoms: _533  and  _534
REMARK  212  A    between atoms: _537  and  _539
REMARK  213  A    between atoms: _539  and  _540
REMARK  214  A    between atoms: _539  and  _542
REMARK  215  A    between atoms: _542  and  _543
REMARK                            x       y       z     vdW  Elec       q    Type
REMARK                         _______ _______ _______ _____ _____    ______ ____
ROOT
ATOM      1  O   HOH     1     -19.989   4.588  10.587  0.00  0.00    +0.000 OA
ENDROOT
TORSDOF 0
REMARK  Name = ../refined-set-2016/2c92/2c92_pocket.pdb
REMARK  215 active torsions:
REMARK  status: ('A' for Active; 'I' for Inactive)
REMARK    1  A    between atoms: _1  and  _3
REMARK    2  A    between atoms: _3  and  _4
REMARK    3  A    between atoms: _7  and  _9
REMARK    4  A    between atoms: _9  and  _10
REMARK    5  A    between atoms: _9  and  _12
REMARK    6  A    between atoms: _12  and  _13
REMARK    7  A    between atoms: _15  and  _17
REMARK    8  A    between atoms: _17  and  _18
REMARK    9  A    between atoms: _17  and  _20
REMARK   10  A    between atoms: _20  and  _21
REMARK   11  A    between atoms: _23  and  _25
REMARK   12  A    between atoms: _25  and  _26
REMARK   13  A    between atoms: _25  and  _28
REMARK   14  A    between atoms: _28  and  _29
REMARK   15  A    between atoms: _39  and  _41
REMARK   16  A    between atoms: _41  and  _42
REMARK   17  A    between atoms: _41  and  _44
REMARK   18  A    between atoms: _44  and  _45
REMARK   19  A    between atoms: _50  and  _52
REMARK   20  A    between atoms: _52  and  _53
REMARK   21  A    between atoms: _52  and  _55
REMARK   22  A    between atoms: _57  and  _59
REMARK   23  A    between atoms: _59  and  _60
REMARK   24  A    between atoms: _59  and  _62
REMARK   25  A    between atoms: _65  and  _67
REMARK   26  A    between atoms: _67  and  _68
REMARK   27  A    between atoms: _67  and  _70
REMARK   28  A    between atoms: _70  and  _71
REMARK   29  A    between atoms: _74  and  _76
REMARK   30  A    between atoms: _76  and  _77
REMARK   31  A    between atoms: _79  and  _81
REMARK   32  A    between atoms: _81  and  _82
REMARK   33  A    between atoms: _85  and  _87
REMARK   34  A    between atoms: _87  and  _88
REMARK   35  A    between atoms: _87  and  _90
REMARK   36  A    between atoms: _90  and  _91
REMARK   37  A    between atoms: _94  and  _96
REMARK   38  A    between atoms: _96  and  _97
REMARK   39  A    between atoms: _96  and  _99
REMARK   40  A    between atoms: _99  and  _100
REMARK   41  A    between atoms: _100  and  _101
REMARK   42  A    between atoms: _104  and  _106
REMARK   43  A    between atoms: _106  and  _107
REMARK   44  A    between atoms: _106  and  _109
REMARK   45  A    between atoms: _109  and  _110
REMARK   46  A    between atoms: _113  and  _115
REMARK   47  A    between atoms: _115  and  _116
REMARK   48  A    between atoms: _115  and  _118
REMARK   49  A    between atoms: _118  and  _119
REMARK   50  A    between atoms: _122  and  _124
REMARK   51  A    between atoms: _124  and  _125
REMARK   52  A    between atoms: _127  and  _129
REMARK   53  A    between atoms: _129  and  _130
REMARK   54  A    between atoms: _129  and  _132
REMARK   55  A    between atoms: _135  and  _137
REMARK   56  A    between atoms: _137  and  _138
REMARK   57  A    between atoms: _137  and  _140
REMARK   58  A    between atoms: _143  and  _145
REMARK   59  A    between atoms: _145  and  _146
REMARK   60  A    between atoms: _145  and  _148
REMARK   61  A    between atoms: _148  and  _149
REMARK   62  A    between atoms: _152  and  _154
REMARK   63  A    between atoms: _154  and  _155
REMARK   64  A    between atoms: _154  and  _157
REMARK   65  A    between atoms: _157  and  _158
REMARK   66  A    between atoms: _158  and  _159
REMARK   67  A    between atoms: _159  and  _160
REMARK   68  A    between atoms: _169  and  _171
REMARK   69  A    between atoms: _171  and  _172
REMARK   70  A    between atoms: _174  and  _176
REMARK   71  A    between atoms: _176  and  _177
REMARK   72  A    between atoms: _176  and  _179
REMARK   73  A    between atoms: _179  and  _180
REMARK   74  A    between atoms: _180  and  _181
REMARK   75  A    between atoms: _186  and  _188
REMARK   76  A    between atoms: _188  and  _189
REMARK   77  A    between atoms: _188  and  _191
REMARK   78  A    between atoms: _191  and  _192
REMARK   79  A    between atoms: _196  and  _197
REMARK   80  A    between atoms: _202  and  _204
REMARK   81  A    between atoms: _204  and  _205
REMARK   82  A    between atoms: _204  and  _207
REMARK   83  A    between atoms: _207  and  _208
REMARK   84  A    between atoms: _213  and  _215
REMARK   85  A    between atoms: _215  and  _216
REMARK   86  A    between atoms: _215  and  _218
REMARK   87  A    between atoms: _218  and  _219
REMARK   88  A    between atoms: _225  and  _227
REMARK   89  A    between atoms: _227  and  _228
REMARK   90  A    between atoms: _227  and  _230
REMARK   91  A    between atoms: _230  and  _231
REMARK   92  A    between atoms: _234  and  _236
REMARK   93  A    between atoms: _236  and  _237
REMARK   94  A    between atoms: _236  and  _239
REMARK   95  A    between atoms: _239  and  _240
REMARK   96  A    between atoms: _245  and  _246
REMARK   97  A    between atoms: _248  and  _250
REMARK   98  A    between atoms: _250  and  _251
REMARK   99  A    between atoms: _250  and  _253
REMARK  100  A    between atoms: _256  and  _258
REMARK  101  A    between atoms: _258  and  _259
REMARK  102  A    between atoms: _258  and  _261
REMARK  103  A    between atoms: _263  and  _265
REMARK  104  A    between atoms: _265  and  _266
REMARK  105  A    between atoms: _269  and  _271
REMARK  106  A    between atoms: _271  and  _272
REMARK  107  A    between atoms: _271  and  _274
REMARK  108  A    between atoms: _277  and  _279
REMARK  109  A    between atoms: _279  and  _280
REMARK  110  A    between atoms: _279  and  _282
REMARK  111  A    between atoms: _285  and  _287
REMARK  112  A    between atoms: _287  and  _288
REMARK  113  A    between atoms: _287  and  _290
REMARK  114  A    between atoms: _290  and  _291
REMARK  115  A    between atoms: _294  and  _296
REMARK  116  A    between atoms: _296  and  _297
REMARK  117  A    between atoms: _296  and  _299
REMARK  118  A    between atoms: _299  and  _300
REMARK  119  A    between atoms: _303  and  _305
REMARK  120  A    between atoms: _305  and  _306
REMARK  121  A    between atoms: _305  and  _308
REMARK  122  A    between atoms: _311  and  _313
REMARK  123  A    between atoms: _313  and  _314
REMARK  124  A    between atoms: _313  and  _316
REMARK  125  A    between atoms: _319  and  _321
REMARK  126  A    between atoms: _321  and  _322
REMARK  127  A    between atoms: _325  and  _327
REMARK  128  A    between atoms: _327  and  _328
REMARK  129  A    between atoms: _327  and  _330
REMARK  130  A    between atoms: _330  and  _331
REMARK  131  A    between atoms: _335  and  _336
REMARK  132  A    between atoms: _341  and  _343
REMARK  133  A    between atoms: _343  and  _344
REMARK  134  A    between atoms: _343  and  _346
REMARK  135  A    between atoms: _346  and  _347
REMARK  136  A    between atoms: _350  and  _352
REMARK  137  A    between atoms: _352  and  _353
REMARK  138  A    between atoms: _356  and  _358
REMARK  139  A    between atoms: _358  and  _359
REMARK  140  A    between atoms: _358  and  _361
REMARK  141  A    between atoms: _361  and  _362
REMARK  142  A    between atoms: _367  and  _369
REMARK  143  A    between atoms: _369  and  _370
REMARK  144  A    between atoms: _372  and  _374
REMARK  145  A    between atoms: _374  and  _375
REMARK  146  A    between atoms: _374  and  _377
REMARK  147  A    between atoms: _380  and  _382
REMARK  148  A    between atoms: _382  and  _383
REMARK  149  A    between atoms: _382  and  _385
REMARK  150  A    between atoms: _385  and  _386
REMARK  151  A    between atoms: _389  and  _391
REMARK  152  A    between atoms: _391  and  _392
REMARK  153  A    between atoms: _391  and  _394
REMARK  154  A    between atoms: _394  and  _395
REMARK  155  A    between atoms: _398  and  _400
REMARK  156  A    between atoms: _400  and  _401
REMARK  157  A    between atoms: _400  and  _403
REMARK  158  A    between atoms: _403  and  _404
REMARK  159  A    between atoms: _407  and  _409
REMARK  160  A    between atoms: _409  and  _410
REMARK  161  A    between atoms: _409  and  _412
REMARK  162  A    between atoms: _412  and  _413
REMARK  163  A    between atoms: _418  and  _420
REMARK  164  A    between atoms: _420  and  _421
REMARK  165  A    between atoms: _420  and  _423
REMARK  166  A    between atoms: _423  and  _424
REMARK  167  A    between atoms: _424  and  _425
REMARK  168  A    between atoms: _430  and  _432
REMARK  169  A    between atoms: _432  and  _433
REMARK  170  A    between atoms: _432  and  _435
REMARK  171  A    between atoms: _435  and  _436
REMARK  172  A    between atoms: _439  and  _441
REMARK  173  A    between atoms: _441  and  _442
REMARK  174  A    between atoms: _441  and  _444
REMARK  175  A    between atoms: _444  and  _445
REMARK  176  A    between atoms: _445  and  _446
REMARK  177  A    between atoms: _446  and  _447
REMARK  178  A    between atoms: _456  and  _458
REMARK  179  A    between atoms: _458  and  _459
REMARK  180  A    between atoms: _458  and  _461
REMARK  181  A    between atoms: _461  and  _462
REMARK  182  A    between atoms: _462  and  _463
REMARK  183  A    between atoms: _466  and  _468
REMARK  184  A    between atoms: _468  and  _469
REMARK  185  A    between atoms: _468  and  _471
REMARK  186  A    between atoms: _471  and  _472
REMARK  187  A    between atoms: _472  and  _473
REMARK  188  A    between atoms: _473  and  _474
REMARK  189  A    between atoms: _474  and  _475
REMARK  190  A    between atoms: _479  and  _481
REMARK  191  A    between atoms: _481  and  _482
REMARK  192  A    between atoms: _484  and  _486
REMARK  193  A    between atoms: _486  and  _487
REMARK  194  A    between atoms: _490  and  _492
REMARK  195  A    between atoms: _492  and  _493
REMARK  196  A    between atoms: _492  and  _495
REMARK  197  A    between atoms: _495  and  _496
REMARK  198  A    between atoms: _496  and  _497
REMARK  199  A    between atoms: _502  and  _504
REMARK  200  A    between atoms: _504  and  _505
REMARK  201  A    between atoms: _508  and  _510
REMARK  202  A    between atoms: _510  and  _511
REMARK  203  A    between atoms: _510  and  _513
REMARK  204  A    between atoms: _513  and  _514
REMARK  205  A    between atoms: _517  and  _519
REMARK  206  A    between atoms: _519  and  _520
REMARK  207  A    between atoms: _519  and  _522
REMARK  208  A    between atoms: _525  and  _527
REMARK  209  A    between atoms: _527  and  _528
REMARK  210  A    between atoms: _531  and  _533
REMARK  211  A    between atoms: _533  and  _534
REMARK  212  A    between atoms: _537  and  _539
REMARK  213  A    between atoms: _539  and  _540
REMARK  214  A    between atoms: _539  and  _542
REMARK  215  A    between atoms: _542  and  _543
REMARK                            x       y       z     vdW  Elec       q    Type
REMARK                         _______ _______ _______ _____ _____    ______ ____
ROOT
ATOM      1  O   HOH     1     -19.101   3.709  13.073  0.00  0.00    +0.000 OA
ENDROOT
TORSDOF 0
REMARK  Name = ../refined-set-2016/2c92/2c92_pocket.pdb
REMARK  215 active torsions:
REMARK  status: ('A' for Active; 'I' for Inactive)
REMARK    1  A    between atoms: _1  and  _3
REMARK    2  A    between atoms: _3  and  _4
REMARK    3  A    between atoms: _7  and  _9
REMARK    4  A    between atoms: _9  and  _10
REMARK    5  A    between atoms: _9  and  _12
REMARK    6  A    between atoms: _12  and  _13
REMARK    7  A    between atoms: _15  and  _17
REMARK    8  A    between atoms: _17  and  _18
REMARK    9  A    between atoms: _17  and  _20
REMARK   10  A    between atoms: _20  and  _21
REMARK   11  A    between atoms: _23  and  _25
REMARK   12  A    between atoms: _25  and  _26
REMARK   13  A    between atoms: _25  and  _28
REMARK   14  A    between atoms: _28  and  _29
REMARK   15  A    between atoms: _39  and  _41
REMARK   16  A    between atoms: _41  and  _42
REMARK   17  A    between atoms: _41  and  _44
REMARK   18  A    between atoms: _44  and  _45
REMARK   19  A    between atoms: _50  and  _52
REMARK   20  A    between atoms: _52  and  _53
REMARK   21  A    between atoms: _52  and  _55
REMARK   22  A    between atoms: _57  and  _59
REMARK   23  A    between atoms: _59  and  _60
REMARK   24  A    between atoms: _59  and  _62
REMARK   25  A    between atoms: _65  and  _67
REMARK   26  A    between atoms: _67  and  _68
REMARK   27  A    between atoms: _67  and  _70
REMARK   28  A    between atoms: _70  and  _71
REMARK   29  A    between atoms: _74  and  _76
REMARK   30  A    between atoms: _76  and  _77
REMARK   31  A    between atoms: _79  and  _81
REMARK   32  A    between atoms: _81  and  _82
REMARK   33  A    between atoms: _85  and  _87
REMARK   34  A    between atoms: _87  and  _88
REMARK   35  A    between atoms: _87  and  _90
REMARK   36  A    between atoms: _90  and  _91
REMARK   37  A    between atoms: _94  and  _96
REMARK   38  A    between atoms: _96  and  _97
REMARK   39  A    between atoms: _96  and  _99
REMARK   40  A    between atoms: _99  and  _100
REMARK   41  A    between atoms: _100  and  _101
REMARK   42  A    between atoms: _104  and  _106
REMARK   43  A    between atoms: _106  and  _107
REMARK   44  A    between atoms: _106  and  _109
REMARK   45  A    between atoms: _109  and  _110
REMARK   46  A    between atoms: _113  and  _115
REMARK   47  A    between atoms: _115  and  _116
REMARK   48  A    between atoms: _115  and  _118
REMARK   49  A    between atoms: _118  and  _119
REMARK   50  A    between atoms: _122  and  _124
REMARK   51  A    between atoms: _124  and  _125
REMARK   52  A    between atoms: _127  and  _129
REMARK   53  A    between atoms: _129  and  _130
REMARK   54  A    between atoms: _129  and  _132
REMARK   55  A    between atoms: _135  and  _137
REMARK   56  A    between atoms: _137  and  _138
REMARK   57  A    between atoms: _137  and  _140
REMARK   58  A    between atoms: _143  and  _145
REMARK   59  A    between atoms: _145  and  _146
REMARK   60  A    between atoms: _145  and  _148
REMARK   61  A    between atoms: _148  and  _149
REMARK   62  A    between atoms: _152  and  _154
REMARK   63  A    between atoms: _154  and  _155
REMARK   64  A    between atoms: _154  and  _157
REMARK   65  A    between atoms: _157  and  _158
REMARK   66  A    between atoms: _158  and  _159
REMARK   67  A    between atoms: _159  and  _160
REMARK   68  A    between atoms: _169  and  _171
REMARK   69  A    between atoms: _171  and  _172
REMARK   70  A    between atoms: _174  and  _176
REMARK   71  A    between atoms: _176  and  _177
REMARK   72  A    between atoms: _176  and  _179
REMARK   73  A    between atoms: _179  and  _180
REMARK   74  A    between atoms: _180  and  _181
REMARK   75  A    between atoms: _186  and  _188
REMARK   76  A    between atoms: _188  and  _189
REMARK   77  A    between atoms: _188  and  _191
REMARK   78  A    between atoms: _191  and  _192
REMARK   79  A    between atoms: _196  and  _197
REMARK   80  A    between atoms: _202  and  _204
REMARK   81  A    between atoms: _204  and  _205
REMARK   82  A    between atoms: _204  and  _207
REMARK   83  A    between atoms: _207  and  _208
REMARK   84  A    between atoms: _213  and  _215
REMARK   85  A    between atoms: _215  and  _216
REMARK   86  A    between atoms: _215  and  _218
REMARK   87  A    between atoms: _218  and  _219
REMARK   88  A    between atoms: _225  and  _227
REMARK   89  A    between atoms: _227  and  _228
REMARK   90  A    between atoms: _227  and  _230
REMARK   91  A    between atoms: _230  and  _231
REMARK   92  A    between atoms: _234  and  _236
REMARK   93  A    between atoms: _236  and  _237
REMARK   94  A    between atoms: _236  and  _239
REMARK   95  A    between atoms: _239  and  _240
REMARK   96  A    between atoms: _245  and  _246
REMARK   97  A    between atoms: _248  and  _250
REMARK   98  A    between atoms: _250  and  _251
REMARK   99  A    between atoms: _250  and  _253
REMARK  100  A    between atoms: _256  and  _258
REMARK  101  A    between atoms: _258  and  _259
REMARK  102  A    between atoms: _258  and  _261
REMARK  103  A    between atoms: _263  and  _265
REMARK  104  A    between atoms: _265  and  _266
REMARK  105  A    between atoms: _269  and  _271
REMARK  106  A    between atoms: _271  and  _272
REMARK  107  A    between atoms: _271  and  _274
REMARK  108  A    between atoms: _277  and  _279
REMARK  109  A    between atoms: _279  and  _280
REMARK  110  A    between atoms: _279  and  _282
REMARK  111  A    between atoms: _285  and  _287
REMARK  112  A    between atoms: _287  and  _288
REMARK  113  A    between atoms: _287  and  _290
REMARK  114  A    between atoms: _290  and  _291
REMARK  115  A    between atoms: _294  and  _296
REMARK  116  A    between atoms: _296  and  _297
REMARK  117  A    between atoms: _296  and  _299
REMARK  118  A    between atoms: _299  and  _300
REMARK  119  A    between atoms: _303  and  _305
REMARK  120  A    between atoms: _305  and  _306
REMARK  121  A    between atoms: _305  and  _308
REMARK  122  A    between atoms: _311  and  _313
REMARK  123  A    between atoms: _313  and  _314
REMARK  124  A    between atoms: _313  and  _316
REMARK  125  A    between atoms: _319  and  _321
REMARK  126  A    between atoms: _321  and  _322
REMARK  127  A    between atoms: _325  and  _327
REMARK  128  A    between atoms: _327  and  _328
REMARK  129  A    between atoms: _327  and  _330
REMARK  130  A    between atoms: _330  and  _331
REMARK  131  A    between atoms: _335  and  _336
REMARK  132  A    between atoms: _341  and  _343
REMARK  133  A    between atoms: _343  and  _344
REMARK  134  A    between atoms: _343  and  _346
REMARK  135  A    between atoms: _346  and  _347
REMARK  136  A    between atoms: _350  and  _352
REMARK  137  A    between atoms: _352  and  _353
REMARK  138  A    between atoms: _356  and  _358
REMARK  139  A    between atoms: _358  and  _359
REMARK  140  A    between atoms: _358  and  _361
REMARK  141  A    between atoms: _361  and  _362
REMARK  142  A    between atoms: _367  and  _369
REMARK  143  A    between atoms: _369  and  _370
REMARK  144  A    between atoms: _372  and  _374
REMARK  145  A    between atoms: _374  and  _375
REMARK  146  A    between atoms: _374  and  _377
REMARK  147  A    between atoms: _380  and  _382
REMARK  148  A    between atoms: _382  and  _383
REMARK  149  A    between atoms: _382  and  _385
REMARK  150  A    between atoms: _385  and  _386
REMARK  151  A    between atoms: _389  and  _391
REMARK  152  A    between atoms: _391  and  _392
REMARK  153  A    between atoms: _391  and  _394
REMARK  154  A    between atoms: _394  and  _395
REMARK  155  A    between atoms: _398  and  _400
REMARK  156  A    between atoms: _400  and  _401
REMARK  157  A    between atoms: _400  and  _403
REMARK  158  A    between atoms: _403  and  _404
REMARK  159  A    between atoms: _407  and  _409
REMARK  160  A    between atoms: _409  and  _410
REMARK  161  A    between atoms: _409  and  _412
REMARK  162  A    between atoms: _412  and  _413
REMARK  163  A    between atoms: _418  and  _420
REMARK  164  A    between atoms: _420  and  _421
REMARK  165  A    between atoms: _420  and  _423
REMARK  166  A    between atoms: _423  and  _424
REMARK  167  A    between atoms: _424  and  _425
REMARK  168  A    between atoms: _430  and  _432
REMARK  169  A    between atoms: _432  and  _433
REMARK  170  A    between atoms: _432  and  _435
REMARK  171  A    between atoms: _435  and  _436
REMARK  172  A    between atoms: _439  and  _441
REMARK  173  A    between atoms: _441  and  _442
REMARK  174  A    between atoms: _441  and  _444
REMARK  175  A    between atoms: _444  and  _445
REMARK  176  A    between atoms: _445  and  _446
REMARK  177  A    between atoms: _446  and  _447
REMARK  178  A    between atoms: _456  and  _458
REMARK  179  A    between atoms: _458  and  _459
REMARK  180  A    between atoms: _458  and  _461
REMARK  181  A    between atoms: _461  and  _462
REMARK  182  A    between atoms: _462  and  _463
REMARK  183  A    between atoms: _466  and  _468
REMARK  184  A    between atoms: _468  and  _469
REMARK  185  A    between atoms: _468  and  _471
REMARK  186  A    between atoms: _471  and  _472
REMARK  187  A    between atoms: _472  and  _473
REMARK  188  A    between atoms: _473  and  _474
REMARK  189  A    between atoms: _474  and  _475
REMARK  190  A    between atoms: _479  and  _481
REMARK  191  A    between atoms: _481  and  _482
REMARK  192  A    between atoms: _484  and  _486
REMARK  193  A    between atoms: _486  and  _487
REMARK  194  A    between atoms: _490  and  _492
REMARK  195  A    between atoms: _492  and  _493
REMARK  196  A    between atoms: _492  and  _495
REMARK  197  A    between atoms: _495  and  _496
REMARK  198  A    between atoms: _496  and  _497
REMARK  199  A    between atoms: _502  and  _504
REMARK  200  A    between atoms: _504  and  _505
REMARK  201  A    between atoms: _508  and  _510
REMARK  202  A    between atoms: _510  and  _511
REMARK  203  A    between atoms: _510  and  _513
REMARK  204  A    between atoms: _513  and  _514
REMARK  205  A    between atoms: _517  and  _519
REMARK  206  A    between atoms: _519  and  _520
REMARK  207  A    between atoms: _519  and  _522
REMARK  208  A    between atoms: _525  and  _527
REMARK  209  A    between atoms: _527  and  _528
REMARK  210  A    between atoms: _531  and  _533
REMARK  211  A    between atoms: _533  and  _534
REMARK  212  A    between atoms: _537  and  _539
REMARK  213  A    between atoms: _539  and  _540
REMARK  214  A    between atoms: _539  and  _542
REMARK  215  A    between atoms: _542  and  _543
REMARK                            x       y       z     vdW  Elec       q    Type
REMARK                         _______ _______ _______ _____ _____    ______ ____
ROOT
ATOM      1  O   HOH     1     -19.038   7.142  10.629  0.00  0.00    +0.000 OA
ENDROOT
TORSDOF 0
REMARK  Name = ../refined-set-2016/2c92/2c92_pocket.pdb
REMARK  215 active torsions:
REMARK  status: ('A' for Active; 'I' for Inactive)
REMARK    1  A    between atoms: _1  and  _3
REMARK    2  A    between atoms: _3  and  _4
REMARK    3  A    between atoms: _7  and  _9
REMARK    4  A    between atoms: _9  and  _10
REMARK    5  A    between atoms: _9  and  _12
REMARK    6  A    between atoms: _12  and  _13
REMARK    7  A    between atoms: _15  and  _17
REMARK    8  A    between atoms: _17  and  _18
REMARK    9  A    between atoms: _17  and  _20
REMARK   10  A    between atoms: _20  and  _21
REMARK   11  A    between atoms: _23  and  _25
REMARK   12  A    between atoms: _25  and  _26
REMARK   13  A    between atoms: _25  and  _28
REMARK   14  A    between atoms: _28  and  _29
REMARK   15  A    between atoms: _39  and  _41
REMARK   16  A    between atoms: _41  and  _42
REMARK   17  A    between atoms: _41  and  _44
REMARK   18  A    between atoms: _44  and  _45
REMARK   19  A    between atoms: _50  and  _52
REMARK   20  A    between atoms: _52  and  _53
REMARK   21  A    between atoms: _52  and  _55
REMARK   22  A    between atoms: _57  and  _59
REMARK   23  A    between atoms: _59  and  _60
REMARK   24  A    between atoms: _59  and  _62
REMARK   25  A    between atoms: _65  and  _67
REMARK   26  A    between atoms: _67  and  _68
REMARK   27  A    between atoms: _67  and  _70
REMARK   28  A    between atoms: _70  and  _71
REMARK   29  A    between atoms: _74  and  _76
REMARK   30  A    between atoms: _76  and  _77
REMARK   31  A    between atoms: _79  and  _81
REMARK   32  A    between atoms: _81  and  _82
REMARK   33  A    between atoms: _85  and  _87
REMARK   34  A    between atoms: _87  and  _88
REMARK   35  A    between atoms: _87  and  _90
REMARK   36  A    between atoms: _90  and  _91
REMARK   37  A    between atoms: _94  and  _96
REMARK   38  A    between atoms: _96  and  _97
REMARK   39  A    between atoms: _96  and  _99
REMARK   40  A    between atoms: _99  and  _100
REMARK   41  A    between atoms: _100  and  _101
REMARK   42  A    between atoms: _104  and  _106
REMARK   43  A    between atoms: _106  and  _107
REMARK   44  A    between atoms: _106  and  _109
REMARK   45  A    between atoms: _109  and  _110
REMARK   46  A    between atoms: _113  and  _115
REMARK   47  A    between atoms: _115  and  _116
REMARK   48  A    between atoms: _115  and  _118
REMARK   49  A    between atoms: _118  and  _119
REMARK   50  A    between atoms: _122  and  _124
REMARK   51  A    between atoms: _124  and  _125
REMARK   52  A    between atoms: _127  and  _129
REMARK   53  A    between atoms: _129  and  _130
REMARK   54  A    between atoms: _129  and  _132
REMARK   55  A    between atoms: _135  and  _137
REMARK   56  A    between atoms: _137  and  _138
REMARK   57  A    between atoms: _137  and  _140
REMARK   58  A    between atoms: _143  and  _145
REMARK   59  A    between atoms: _145  and  _146
REMARK   60  A    between atoms: _145  and  _148
REMARK   61  A    between atoms: _148  and  _149
REMARK   62  A    between atoms: _152  and  _154
REMARK   63  A    between atoms: _154  and  _155
REMARK   64  A    between atoms: _154  and  _157
REMARK   65  A    between atoms: _157  and  _158
REMARK   66  A    between atoms: _158  and  _159
REMARK   67  A    between atoms: _159  and  _160
REMARK   68  A    between atoms: _169  and  _171
REMARK   69  A    between atoms: _171  and  _172
REMARK   70  A    between atoms: _174  and  _176
REMARK   71  A    between atoms: _176  and  _177
REMARK   72  A    between atoms: _176  and  _179
REMARK   73  A    between atoms: _179  and  _180
REMARK   74  A    between atoms: _180  and  _181
REMARK   75  A    between atoms: _186  and  _188
REMARK   76  A    between atoms: _188  and  _189
REMARK   77  A    between atoms: _188  and  _191
REMARK   78  A    between atoms: _191  and  _192
REMARK   79  A    between atoms: _196  and  _197
REMARK   80  A    between atoms: _202  and  _204
REMARK   81  A    between atoms: _204  and  _205
REMARK   82  A    between atoms: _204  and  _207
REMARK   83  A    between atoms: _207  and  _208
REMARK   84  A    between atoms: _213  and  _215
REMARK   85  A    between atoms: _215  and  _216
REMARK   86  A    between atoms: _215  and  _218
REMARK   87  A    between atoms: _218  and  _219
REMARK   88  A    between atoms: _225  and  _227
REMARK   89  A    between atoms: _227  and  _228
REMARK   90  A    between atoms: _227  and  _230
REMARK   91  A    between atoms: _230  and  _231
REMARK   92  A    between atoms: _234  and  _236
REMARK   93  A    between atoms: _236  and  _237
REMARK   94  A    between atoms: _236  and  _239
REMARK   95  A    between atoms: _239  and  _240
REMARK   96  A    between atoms: _245  and  _246
REMARK   97  A    between atoms: _248  and  _250
REMARK   98  A    between atoms: _250  and  _251
REMARK   99  A    between atoms: _250  and  _253
REMARK  100  A    between atoms: _256  and  _258
REMARK  101  A    between atoms: _258  and  _259
REMARK  102  A    between atoms: _258  and  _261
REMARK  103  A    between atoms: _263  and  _265
REMARK  104  A    between atoms: _265  and  _266
REMARK  105  A    between atoms: _269  and  _271
REMARK  106  A    between atoms: _271  and  _272
REMARK  107  A    between atoms: _271  and  _274
REMARK  108  A    between atoms: _277  and  _279
REMARK  109  A    between atoms: _279  and  _280
REMARK  110  A    between atoms: _279  and  _282
REMARK  111  A    between atoms: _285  and  _287
REMARK  112  A    between atoms: _287  and  _288
REMARK  113  A    between atoms: _287  and  _290
REMARK  114  A    between atoms: _290  and  _291
REMARK  115  A    between atoms: _294  and  _296
REMARK  116  A    between atoms: _296  and  _297
REMARK  117  A    between atoms: _296  and  _299
REMARK  118  A    between atoms: _299  and  _300
REMARK  119  A    between atoms: _303  and  _305
REMARK  120  A    between atoms: _305  and  _306
REMARK  121  A    between atoms: _305  and  _308
REMARK  122  A    between atoms: _311  and  _313
REMARK  123  A    between atoms: _313  and  _314
REMARK  124  A    between atoms: _313  and  _316
REMARK  125  A    between atoms: _319  and  _321
REMARK  126  A    between atoms: _321  and  _322
REMARK  127  A    between atoms: _325  and  _327
REMARK  128  A    between atoms: _327  and  _328
REMARK  129  A    between atoms: _327  and  _330
REMARK  130  A    between atoms: _330  and  _331
REMARK  131  A    between atoms: _335  and  _336
REMARK  132  A    between atoms: _341  and  _343
REMARK  133  A    between atoms: _343  and  _344
REMARK  134  A    between atoms: _343  and  _346
REMARK  135  A    between atoms: _346  and  _347
REMARK  136  A    between atoms: _350  and  _352
REMARK  137  A    between atoms: _352  and  _353
REMARK  138  A    between atoms: _356  and  _358
REMARK  139  A    between atoms: _358  and  _359
REMARK  140  A    between atoms: _358  and  _361
REMARK  141  A    between atoms: _361  and  _362
REMARK  142  A    between atoms: _367  and  _369
REMARK  143  A    between atoms: _369  and  _370
REMARK  144  A    between atoms: _372  and  _374
REMARK  145  A    between atoms: _374  and  _375
REMARK  146  A    between atoms: _374  and  _377
REMARK  147  A    between atoms: _380  and  _382
REMARK  148  A    between atoms: _382  and  _383
REMARK  149  A    between atoms: _382  and  _385
REMARK  150  A    between atoms: _385  and  _386
REMARK  151  A    between atoms: _389  and  _391
REMARK  152  A    between atoms: _391  and  _392
REMARK  153  A    between atoms: _391  and  _394
REMARK  154  A    between atoms: _394  and  _395
REMARK  155  A    between atoms: _398  and  _400
REMARK  156  A    between atoms: _400  and  _401
REMARK  157  A    between atoms: _400  and  _403
REMARK  158  A    between atoms: _403  and  _404
REMARK  159  A    between atoms: _407  and  _409
REMARK  160  A    between atoms: _409  and  _410
REMARK  161  A    between atoms: _409  and  _412
REMARK  162  A    between atoms: _412  and  _413
REMARK  163  A    between atoms: _418  and  _420
REMARK  164  A    between atoms: _420  and  _421
REMARK  165  A    between atoms: _420  and  _423
REMARK  166  A    between atoms: _423  and  _424
REMARK  167  A    between atoms: _424  and  _425
REMARK  168  A    between atoms: _430  and  _432
REMARK  169  A    between atoms: _432  and  _433
REMARK  170  A    between atoms: _432  and  _435
REMARK  171  A    between atoms: _435  and  _436
REMARK  172  A    between atoms: _439  and  _441
REMARK  173  A    between atoms: _441  and  _442
REMARK  174  A    between atoms: _441  and  _444
REMARK  175  A    between atoms: _444  and  _445
REMARK  176  A    between atoms: _445  and  _446
REMARK  177  A    between atoms: _446  and  _447
REMARK  178  A    between atoms: _456  and  _458
REMARK  179  A    between atoms: _458  and  _459
REMARK  180  A    between atoms: _458  and  _461
REMARK  181  A    between atoms: _461  and  _462
REMARK  182  A    between atoms: _462  and  _463
REMARK  183  A    between atoms: _466  and  _468
REMARK  184  A    between atoms: _468  and  _469
REMARK  185  A    between atoms: _468  and  _471
REMARK  186  A    between atoms: _471  and  _472
REMARK  187  A    between atoms: _472  and  _473
REMARK  188  A    between atoms: _473  and  _474
REMARK  189  A    between atoms: _474  and  _475
REMARK  190  A    between atoms: _479  and  _481
REMARK  191  A    between atoms: _481  and  _482
REMARK  192  A    between atoms: _484  and  _486
REMARK  193  A    between atoms: _486  and  _487
REMARK  194  A    between atoms: _490  and  _492
REMARK  195  A    between atoms: _492  and  _493
REMARK  196  A    between atoms: _492  and  _495
REMARK  197  A    between atoms: _495  and  _496
REMARK  198  A    between atoms: _496  and  _497
REMARK  199  A    between atoms: _502  and  _504
REMARK  200  A    between atoms: _504  and  _505
REMARK  201  A    between atoms: _508  and  _510
REMARK  202  A    between atoms: _510  and  _511
REMARK  203  A    between atoms: _510  and  _513
REMARK  204  A    between atoms: _513  and  _514
REMARK  205  A    between atoms: _517  and  _519
REMARK  206  A    between atoms: _519  and  _520
REMARK  207  A    between atoms: _519  and  _522
REMARK  208  A    between atoms: _525  and  _527
REMARK  209  A    between atoms: _527  and  _528
REMARK  210  A    between atoms: _531  and  _533
REMARK  211  A    between atoms: _533  and  _534
REMARK  212  A    between atoms: _537  and  _539
REMARK  213  A    between atoms: _539  and  _540
REMARK  214  A    between atoms: _539  and  _542
REMARK  215  A    between atoms: _542  and  _543
REMARK                            x       y       z     vdW  Elec       q    Type
REMARK                         _______ _______ _______ _____ _____    ______ ____
ROOT
ATOM      1  O   HOH     1     -18.138   7.769   3.981  0.00  0.00    +0.000 OA
ENDROOT
TORSDOF 0
REMARK  Name = ../refined-set-2016/2c92/2c92_pocket.pdb
REMARK  215 active torsions:
REMARK  status: ('A' for Active; 'I' for Inactive)
REMARK    1  A    between atoms: _1  and  _3
REMARK    2  A    between atoms: _3  and  _4
REMARK    3  A    between atoms: _7  and  _9
REMARK    4  A    between atoms: _9  and  _10
REMARK    5  A    between atoms: _9  and  _12
REMARK    6  A    between atoms: _12  and  _13
REMARK    7  A    between atoms: _15  and  _17
REMARK    8  A    between atoms: _17  and  _18
REMARK    9  A    between atoms: _17  and  _20
REMARK   10  A    between atoms: _20  and  _21
REMARK   11  A    between atoms: _23  and  _25
REMARK   12  A    between atoms: _25  and  _26
REMARK   13  A    between atoms: _25  and  _28
REMARK   14  A    between atoms: _28  and  _29
REMARK   15  A    between atoms: _39  and  _41
REMARK   16  A    between atoms: _41  and  _42
REMARK   17  A    between atoms: _41  and  _44
REMARK   18  A    between atoms: _44  and  _45
REMARK   19  A    between atoms: _50  and  _52
REMARK   20  A    between atoms: _52  and  _53
REMARK   21  A    between atoms: _52  and  _55
REMARK   22  A    between atoms: _57  and  _59
REMARK   23  A    between atoms: _59  and  _60
REMARK   24  A    between atoms: _59  and  _62
REMARK   25  A    between atoms: _65  and  _67
REMARK   26  A    between atoms: _67  and  _68
REMARK   27  A    between atoms: _67  and  _70
REMARK   28  A    between atoms: _70  and  _71
REMARK   29  A    between atoms: _74  and  _76
REMARK   30  A    between atoms: _76  and  _77
REMARK   31  A    between atoms: _79  and  _81
REMARK   32  A    between atoms: _81  and  _82
REMARK   33  A    between atoms: _85  and  _87
REMARK   34  A    between atoms: _87  and  _88
REMARK   35  A    between atoms: _87  and  _90
REMARK   36  A    between atoms: _90  and  _91
REMARK   37  A    between atoms: _94  and  _96
REMARK   38  A    between atoms: _96  and  _97
REMARK   39  A    between atoms: _96  and  _99
REMARK   40  A    between atoms: _99  and  _100
REMARK   41  A    between atoms: _100  and  _101
REMARK   42  A    between atoms: _104  and  _106
REMARK   43  A    between atoms: _106  and  _107
REMARK   44  A    between atoms: _106  and  _109
REMARK   45  A    between atoms: _109  and  _110
REMARK   46  A    between atoms: _113  and  _115
REMARK   47  A    between atoms: _115  and  _116
REMARK   48  A    between atoms: _115  and  _118
REMARK   49  A    between atoms: _118  and  _119
REMARK   50  A    between atoms: _122  and  _124
REMARK   51  A    between atoms: _124  and  _125
REMARK   52  A    between atoms: _127  and  _129
REMARK   53  A    between atoms: _129  and  _130
REMARK   54  A    between atoms: _129  and  _132
REMARK   55  A    between atoms: _135  and  _137
REMARK   56  A    between atoms: _137  and  _138
REMARK   57  A    between atoms: _137  and  _140
REMARK   58  A    between atoms: _143  and  _145
REMARK   59  A    between atoms: _145  and  _146
REMARK   60  A    between atoms: _145  and  _148
REMARK   61  A    between atoms: _148  and  _149
REMARK   62  A    between atoms: _152  and  _154
REMARK   63  A    between atoms: _154  and  _155
REMARK   64  A    between atoms: _154  and  _157
REMARK   65  A    between atoms: _157  and  _158
REMARK   66  A    between atoms: _158  and  _159
REMARK   67  A    between atoms: _159  and  _160
REMARK   68  A    between atoms: _169  and  _171
REMARK   69  A    between atoms: _171  and  _172
REMARK   70  A    between atoms: _174  and  _176
REMARK   71  A    between atoms: _176  and  _177
REMARK   72  A    between atoms: _176  and  _179
REMARK   73  A    between atoms: _179  and  _180
REMARK   74  A    between atoms: _180  and  _181
REMARK   75  A    between atoms: _186  and  _188
REMARK   76  A    between atoms: _188  and  _189
REMARK   77  A    between atoms: _188  and  _191
REMARK   78  A    between atoms: _191  and  _192
REMARK   79  A    between atoms: _196  and  _197
REMARK   80  A    between atoms: _202  and  _204
REMARK   81  A    between atoms: _204  and  _205
REMARK   82  A    between atoms: _204  and  _207
REMARK   83  A    between atoms: _207  and  _208
REMARK   84  A    between atoms: _213  and  _215
REMARK   85  A    between atoms: _215  and  _216
REMARK   86  A    between atoms: _215  and  _218
REMARK   87  A    between atoms: _218  and  _219
REMARK   88  A    between atoms: _225  and  _227
REMARK   89  A    between atoms: _227  and  _228
REMARK   90  A    between atoms: _227  and  _230
REMARK   91  A    between atoms: _230  and  _231
REMARK   92  A    between atoms: _234  and  _236
REMARK   93  A    between atoms: _236  and  _237
REMARK   94  A    between atoms: _236  and  _239
REMARK   95  A    between atoms: _239  and  _240
REMARK   96  A    between atoms: _245  and  _246
REMARK   97  A    between atoms: _248  and  _250
REMARK   98  A    between atoms: _250  and  _251
REMARK   99  A    between atoms: _250  and  _253
REMARK  100  A    between atoms: _256  and  _258
REMARK  101  A    between atoms: _258  and  _259
REMARK  102  A    between atoms: _258  and  _261
REMARK  103  A    between atoms: _263  and  _265
REMARK  104  A    between atoms: _265  and  _266
REMARK  105  A    between atoms: _269  and  _271
REMARK  106  A    between atoms: _271  and  _272
REMARK  107  A    between atoms: _271  and  _274
REMARK  108  A    between atoms: _277  and  _279
REMARK  109  A    between atoms: _279  and  _280
REMARK  110  A    between atoms: _279  and  _282
REMARK  111  A    between atoms: _285  and  _287
REMARK  112  A    between atoms: _287  and  _288
REMARK  113  A    between atoms: _287  and  _290
REMARK  114  A    between atoms: _290  and  _291
REMARK  115  A    between atoms: _294  and  _296
REMARK  116  A    between atoms: _296  and  _297
REMARK  117  A    between atoms: _296  and  _299
REMARK  118  A    between atoms: _299  and  _300
REMARK  119  A    between atoms: _303  and  _305
REMARK  120  A    between atoms: _305  and  _306
REMARK  121  A    between atoms: _305  and  _308
REMARK  122  A    between atoms: _311  and  _313
REMARK  123  A    between atoms: _313  and  _314
REMARK  124  A    between atoms: _313  and  _316
REMARK  125  A    between atoms: _319  and  _321
REMARK  126  A    between atoms: _321  and  _322
REMARK  127  A    between atoms: _325  and  _327
REMARK  128  A    between atoms: _327  and  _328
REMARK  129  A    between atoms: _327  and  _330
REMARK  130  A    between atoms: _330  and  _331
REMARK  131  A    between atoms: _335  and  _336
REMARK  132  A    between atoms: _341  and  _343
REMARK  133  A    between atoms: _343  and  _344
REMARK  134  A    between atoms: _343  and  _346
REMARK  135  A    between atoms: _346  and  _347
REMARK  136  A    between atoms: _350  and  _352
REMARK  137  A    between atoms: _352  and  _353
REMARK  138  A    between atoms: _356  and  _358
REMARK  139  A    between atoms: _358  and  _359
REMARK  140  A    between atoms: _358  and  _361
REMARK  141  A    between atoms: _361  and  _362
REMARK  142  A    between atoms: _367  and  _369
REMARK  143  A    between atoms: _369  and  _370
REMARK  144  A    between atoms: _372  and  _374
REMARK  145  A    between atoms: _374  and  _375
REMARK  146  A    between atoms: _374  and  _377
REMARK  147  A    between atoms: _380  and  _382
REMARK  148  A    between atoms: _382  and  _383
REMARK  149  A    between atoms: _382  and  _385
REMARK  150  A    between atoms: _385  and  _386
REMARK  151  A    between atoms: _389  and  _391
REMARK  152  A    between atoms: _391  and  _392
REMARK  153  A    between atoms: _391  and  _394
REMARK  154  A    between atoms: _394  and  _395
REMARK  155  A    between atoms: _398  and  _400
REMARK  156  A    between atoms: _400  and  _401
REMARK  157  A    between atoms: _400  and  _403
REMARK  158  A    between atoms: _403  and  _404
REMARK  159  A    between atoms: _407  and  _409
REMARK  160  A    between atoms: _409  and  _410
REMARK  161  A    between atoms: _409  and  _412
REMARK  162  A    between atoms: _412  and  _413
REMARK  163  A    between atoms: _418  and  _420
REMARK  164  A    between atoms: _420  and  _421
REMARK  165  A    between atoms: _420  and  _423
REMARK  166  A    between atoms: _423  and  _424
REMARK  167  A    between atoms: _424  and  _425
REMARK  168  A    between atoms: _430  and  _432
REMARK  169  A    between atoms: _432  and  _433
REMARK  170  A    between atoms: _432  and  _435
REMARK  171  A    between atoms: _435  and  _436
REMARK  172  A    between atoms: _439  and  _441
REMARK  173  A    between atoms: _441  and  _442
REMARK  174  A    between atoms: _441  and  _444
REMARK  175  A    between atoms: _444  and  _445
REMARK  176  A    between atoms: _445  and  _446
REMARK  177  A    between atoms: _446  and  _447
REMARK  178  A    between atoms: _456  and  _458
REMARK  179  A    between atoms: _458  and  _459
REMARK  180  A    between atoms: _458  and  _461
REMARK  181  A    between atoms: _461  and  _462
REMARK  182  A    between atoms: _462  and  _463
REMARK  183  A    between atoms: _466  and  _468
REMARK  184  A    between atoms: _468  and  _469
REMARK  185  A    between atoms: _468  and  _471
REMARK  186  A    between atoms: _471  and  _472
REMARK  187  A    between atoms: _472  and  _473
REMARK  188  A    between atoms: _473  and  _474
REMARK  189  A    between atoms: _474  and  _475
REMARK  190  A    between atoms: _479  and  _481
REMARK  191  A    between atoms: _481  and  _482
REMARK  192  A    between atoms: _484  and  _486
REMARK  193  A    between atoms: _486  and  _487
REMARK  194  A    between atoms: _490  and  _492
REMARK  195  A    between atoms: _492  and  _493
REMARK  196  A    between atoms: _492  and  _495
REMARK  197  A    between atoms: _495  and  _496
REMARK  198  A    between atoms: _496  and  _497
REMARK  199  A    between atoms: _502  and  _504
REMARK  200  A    between atoms: _504  and  _505
REMARK  201  A    between atoms: _508  and  _510
REMARK  202  A    between atoms: _510  and  _511
REMARK  203  A    between atoms: _510  and  _513
REMARK  204  A    between atoms: _513  and  _514
REMARK  205  A    between atoms: _517  and  _519
REMARK  206  A    between atoms: _519  and  _520
REMARK  207  A    between atoms: _519  and  _522
REMARK  208  A    between atoms: _525  and  _527
REMARK  209  A    between atoms: _527  and  _528
REMARK  210  A    between atoms: _531  and  _533
REMARK  211  A    between atoms: _533  and  _534
REMARK  212  A    between atoms: _537  and  _539
REMARK  213  A    between atoms: _539  and  _540
REMARK  214  A    between atoms: _539  and  _542
REMARK  215  A    between atoms: _542  and  _543
REMARK                            x       y       z     vdW  Elec       q    Type
REMARK                         _______ _______ _______ _____ _____    ______ ____
ROOT
ATOM      1  O   HOH     1     -18.330   9.528  -5.054  0.00  0.00    +0.000 OA
ENDROOT
TORSDOF 0
REMARK  Name = ../refined-set-2016/2c92/2c92_pocket.pdb
REMARK  215 active torsions:
REMARK  status: ('A' for Active; 'I' for Inactive)
REMARK    1  A    between atoms: _1  and  _3
REMARK    2  A    between atoms: _3  and  _4
REMARK    3  A    between atoms: _7  and  _9
REMARK    4  A    between atoms: _9  and  _10
REMARK    5  A    between atoms: _9  and  _12
REMARK    6  A    between atoms: _12  and  _13
REMARK    7  A    between atoms: _15  and  _17
REMARK    8  A    between atoms: _17  and  _18
REMARK    9  A    between atoms: _17  and  _20
REMARK   10  A    between atoms: _20  and  _21
REMARK   11  A    between atoms: _23  and  _25
REMARK   12  A    between atoms: _25  and  _26
REMARK   13  A    between atoms: _25  and  _28
REMARK   14  A    between atoms: _28  and  _29
REMARK   15  A    between atoms: _39  and  _41
REMARK   16  A    between atoms: _41  and  _42
REMARK   17  A    between atoms: _41  and  _44
REMARK   18  A    between atoms: _44  and  _45
REMARK   19  A    between atoms: _50  and  _52
REMARK   20  A    between atoms: _52  and  _53
REMARK   21  A    between atoms: _52  and  _55
REMARK   22  A    between atoms: _57  and  _59
REMARK   23  A    between atoms: _59  and  _60
REMARK   24  A    between atoms: _59  and  _62
REMARK   25  A    between atoms: _65  and  _67
REMARK   26  A    between atoms: _67  and  _68
REMARK   27  A    between atoms: _67  and  _70
REMARK   28  A    between atoms: _70  and  _71
REMARK   29  A    between atoms: _74  and  _76
REMARK   30  A    between atoms: _76  and  _77
REMARK   31  A    between atoms: _79  and  _81
REMARK   32  A    between atoms: _81  and  _82
REMARK   33  A    between atoms: _85  and  _87
REMARK   34  A    between atoms: _87  and  _88
REMARK   35  A    between atoms: _87  and  _90
REMARK   36  A    between atoms: _90  and  _91
REMARK   37  A    between atoms: _94  and  _96
REMARK   38  A    between atoms: _96  and  _97
REMARK   39  A    between atoms: _96  and  _99
REMARK   40  A    between atoms: _99  and  _100
REMARK   41  A    between atoms: _100  and  _101
REMARK   42  A    between atoms: _104  and  _106
REMARK   43  A    between atoms: _106  and  _107
REMARK   44  A    between atoms: _106  and  _109
REMARK   45  A    between atoms: _109  and  _110
REMARK   46  A    between atoms: _113  and  _115
REMARK   47  A    between atoms: _115  and  _116
REMARK   48  A    between atoms: _115  and  _118
REMARK   49  A    between atoms: _118  and  _119
REMARK   50  A    between atoms: _122  and  _124
REMARK   51  A    between atoms: _124  and  _125
REMARK   52  A    between atoms: _127  and  _129
REMARK   53  A    between atoms: _129  and  _130
REMARK   54  A    between atoms: _129  and  _132
REMARK   55  A    between atoms: _135  and  _137
REMARK   56  A    between atoms: _137  and  _138
REMARK   57  A    between atoms: _137  and  _140
REMARK   58  A    between atoms: _143  and  _145
REMARK   59  A    between atoms: _145  and  _146
REMARK   60  A    between atoms: _145  and  _148
REMARK   61  A    between atoms: _148  and  _149
REMARK   62  A    between atoms: _152  and  _154
REMARK   63  A    between atoms: _154  and  _155
REMARK   64  A    between atoms: _154  and  _157
REMARK   65  A    between atoms: _157  and  _158
REMARK   66  A    between atoms: _158  and  _159
REMARK   67  A    between atoms: _159  and  _160
REMARK   68  A    between atoms: _169  and  _171
REMARK   69  A    between atoms: _171  and  _172
REMARK   70  A    between atoms: _174  and  _176
REMARK   71  A    between atoms: _176  and  _177
REMARK   72  A    between atoms: _176  and  _179
REMARK   73  A    between atoms: _179  and  _180
REMARK   74  A    between atoms: _180  and  _181
REMARK   75  A    between atoms: _186  and  _188
REMARK   76  A    between atoms: _188  and  _189
REMARK   77  A    between atoms: _188  and  _191
REMARK   78  A    between atoms: _191  and  _192
REMARK   79  A    between atoms: _196  and  _197
REMARK   80  A    between atoms: _202  and  _204
REMARK   81  A    between atoms: _204  and  _205
REMARK   82  A    between atoms: _204  and  _207
REMARK   83  A    between atoms: _207  and  _208
REMARK   84  A    between atoms: _213  and  _215
REMARK   85  A    between atoms: _215  and  _216
REMARK   86  A    between atoms: _215  and  _218
REMARK   87  A    between atoms: _218  and  _219
REMARK   88  A    between atoms: _225  and  _227
REMARK   89  A    between atoms: _227  and  _228
REMARK   90  A    between atoms: _227  and  _230
REMARK   91  A    between atoms: _230  and  _231
REMARK   92  A    between atoms: _234  and  _236
REMARK   93  A    between atoms: _236  and  _237
REMARK   94  A    between atoms: _236  and  _239
REMARK   95  A    between atoms: _239  and  _240
REMARK   96  A    between atoms: _245  and  _246
REMARK   97  A    between atoms: _248  and  _250
REMARK   98  A    between atoms: _250  and  _251
REMARK   99  A    between atoms: _250  and  _253
REMARK  100  A    between atoms: _256  and  _258
REMARK  101  A    between atoms: _258  and  _259
REMARK  102  A    between atoms: _258  and  _261
REMARK  103  A    between atoms: _263  and  _265
REMARK  104  A    between atoms: _265  and  _266
REMARK  105  A    between atoms: _269  and  _271
REMARK  106  A    between atoms: _271  and  _272
REMARK  107  A    between atoms: _271  and  _274
REMARK  108  A    between atoms: _277  and  _279
REMARK  109  A    between atoms: _279  and  _280
REMARK  110  A    between atoms: _279  and  _282
REMARK  111  A    between atoms: _285  and  _287
REMARK  112  A    between atoms: _287  and  _288
REMARK  113  A    between atoms: _287  and  _290
REMARK  114  A    between atoms: _290  and  _291
REMARK  115  A    between atoms: _294  and  _296
REMARK  116  A    between atoms: _296  and  _297
REMARK  117  A    between atoms: _296  and  _299
REMARK  118  A    between atoms: _299  and  _300
REMARK  119  A    between atoms: _303  and  _305
REMARK  120  A    between atoms: _305  and  _306
REMARK  121  A    between atoms: _305  and  _308
REMARK  122  A    between atoms: _311  and  _313
REMARK  123  A    between atoms: _313  and  _314
REMARK  124  A    between atoms: _313  and  _316
REMARK  125  A    between atoms: _319  and  _321
REMARK  126  A    between atoms: _321  and  _322
REMARK  127  A    between atoms: _325  and  _327
REMARK  128  A    between atoms: _327  and  _328
REMARK  129  A    between atoms: _327  and  _330
REMARK  130  A    between atoms: _330  and  _331
REMARK  131  A    between atoms: _335  and  _336
REMARK  132  A    between atoms: _341  and  _343
REMARK  133  A    between atoms: _343  and  _344
REMARK  134  A    between atoms: _343  and  _346
REMARK  135  A    between atoms: _346  and  _347
REMARK  136  A    between atoms: _350  and  _352
REMARK  137  A    between atoms: _352  and  _353
REMARK  138  A    between atoms: _356  and  _358
REMARK  139  A    between atoms: _358  and  _359
REMARK  140  A    between atoms: _358  and  _361
REMARK  141  A    between atoms: _361  and  _362
REMARK  142  A    between atoms: _367  and  _369
REMARK  143  A    between atoms: _369  and  _370
REMARK  144  A    between atoms: _372  and  _374
REMARK  145  A    between atoms: _374  and  _375
REMARK  146  A    between atoms: _374  and  _377
REMARK  147  A    between atoms: _380  and  _382
REMARK  148  A    between atoms: _382  and  _383
REMARK  149  A    between atoms: _382  and  _385
REMARK  150  A    between atoms: _385  and  _386
REMARK  151  A    between atoms: _389  and  _391
REMARK  152  A    between atoms: _391  and  _392
REMARK  153  A    between atoms: _391  and  _394
REMARK  154  A    between atoms: _394  and  _395
REMARK  155  A    between atoms: _398  and  _400
REMARK  156  A    between atoms: _400  and  _401
REMARK  157  A    between atoms: _400  and  _403
REMARK  158  A    between atoms: _403  and  _404
REMARK  159  A    between atoms: _407  and  _409
REMARK  160  A    between atoms: _409  and  _410
REMARK  161  A    between atoms: _409  and  _412
REMARK  162  A    between atoms: _412  and  _413
REMARK  163  A    between atoms: _418  and  _420
REMARK  164  A    between atoms: _420  and  _421
REMARK  165  A    between atoms: _420  and  _423
REMARK  166  A    between atoms: _423  and  _424
REMARK  167  A    between atoms: _424  and  _425
REMARK  168  A    between atoms: _430  and  _432
REMARK  169  A    between atoms: _432  and  _433
REMARK  170  A    between atoms: _432  and  _435
REMARK  171  A    between atoms: _435  and  _436
REMARK  172  A    between atoms: _439  and  _441
REMARK  173  A    between atoms: _441  and  _442
REMARK  174  A    between atoms: _441  and  _444
REMARK  175  A    between atoms: _444  and  _445
REMARK  176  A    between atoms: _445  and  _446
REMARK  177  A    between atoms: _446  and  _447
REMARK  178  A    between atoms: _456  and  _458
REMARK  179  A    between atoms: _458  and  _459
REMARK  180  A    between atoms: _458  and  _461
REMARK  181  A    between atoms: _461  and  _462
REMARK  182  A    between atoms: _462  and  _463
REMARK  183  A    between atoms: _466  and  _468
REMARK  184  A    between atoms: _468  and  _469
REMARK  185  A    between atoms: _468  and  _471
REMARK  186  A    between atoms: _471  and  _472
REMARK  187  A    between atoms: _472  and  _473
REMARK  188  A    between atoms: _473  and  _474
REMARK  189  A    between atoms: _474  and  _475
REMARK  190  A    between atoms: _479  and  _481
REMARK  191  A    between atoms: _481  and  _482
REMARK  192  A    between atoms: _484  and  _486
REMARK  193  A    between atoms: _486  and  _487
REMARK  194  A    between atoms: _490  and  _492
REMARK  195  A    between atoms: _492  and  _493
REMARK  196  A    between atoms: _492  and  _495
REMARK  197  A    between atoms: _495  and  _496
REMARK  198  A    between atoms: _496  and  _497
REMARK  199  A    between atoms: _502  and  _504
REMARK  200  A    between atoms: _504  and  _505
REMARK  201  A    between atoms: _508  and  _510
REMARK  202  A    between atoms: _510  and  _511
REMARK  203  A    between atoms: _510  and  _513
REMARK  204  A    between atoms: _513  and  _514
REMARK  205  A    between atoms: _517  and  _519
REMARK  206  A    between atoms: _519  and  _520
REMARK  207  A    between atoms: _519  and  _522
REMARK  208  A    between atoms: _525  and  _527
REMARK  209  A    between atoms: _527  and  _528
REMARK  210  A    between atoms: _531  and  _533
REMARK  211  A    between atoms: _533  and  _534
REMARK  212  A    between atoms: _537  and  _539
REMARK  213  A    between atoms: _539  and  _540
REMARK  214  A    between atoms: _539  and  _542
REMARK  215  A    between atoms: _542  and  _543
REMARK                            x       y       z     vdW  Elec       q    Type
REMARK                         _______ _______ _______ _____ _____    ______ ____
ROOT
ATOM      1  O   HOH     1     -14.535   7.815  -5.071  0.00  0.00    +0.000 OA
ENDROOT
TORSDOF 0
REMARK  Name = ../refined-set-2016/2c92/2c92_pocket.pdb
REMARK  215 active torsions:
REMARK  status: ('A' for Active; 'I' for Inactive)
REMARK    1  A    between atoms: _1  and  _3
REMARK    2  A    between atoms: _3  and  _4
REMARK    3  A    between atoms: _7  and  _9
REMARK    4  A    between atoms: _9  and  _10
REMARK    5  A    between atoms: _9  and  _12
REMARK    6  A    between atoms: _12  and  _13
REMARK    7  A    between atoms: _15  and  _17
REMARK    8  A    between atoms: _17  and  _18
REMARK    9  A    between atoms: _17  and  _20
REMARK   10  A    between atoms: _20  and  _21
REMARK   11  A    between atoms: _23  and  _25
REMARK   12  A    between atoms: _25  and  _26
REMARK   13  A    between atoms: _25  and  _28
REMARK   14  A    between atoms: _28  and  _29
REMARK   15  A    between atoms: _39  and  _41
REMARK   16  A    between atoms: _41  and  _42
REMARK   17  A    between atoms: _41  and  _44
REMARK   18  A    between atoms: _44  and  _45
REMARK   19  A    between atoms: _50  and  _52
REMARK   20  A    between atoms: _52  and  _53
REMARK   21  A    between atoms: _52  and  _55
REMARK   22  A    between atoms: _57  and  _59
REMARK   23  A    between atoms: _59  and  _60
REMARK   24  A    between atoms: _59  and  _62
REMARK   25  A    between atoms: _65  and  _67
REMARK   26  A    between atoms: _67  and  _68
REMARK   27  A    between atoms: _67  and  _70
REMARK   28  A    between atoms: _70  and  _71
REMARK   29  A    between atoms: _74  and  _76
REMARK   30  A    between atoms: _76  and  _77
REMARK   31  A    between atoms: _79  and  _81
REMARK   32  A    between atoms: _81  and  _82
REMARK   33  A    between atoms: _85  and  _87
REMARK   34  A    between atoms: _87  and  _88
REMARK   35  A    between atoms: _87  and  _90
REMARK   36  A    between atoms: _90  and  _91
REMARK   37  A    between atoms: _94  and  _96
REMARK   38  A    between atoms: _96  and  _97
REMARK   39  A    between atoms: _96  and  _99
REMARK   40  A    between atoms: _99  and  _100
REMARK   41  A    between atoms: _100  and  _101
REMARK   42  A    between atoms: _104  and  _106
REMARK   43  A    between atoms: _106  and  _107
REMARK   44  A    between atoms: _106  and  _109
REMARK   45  A    between atoms: _109  and  _110
REMARK   46  A    between atoms: _113  and  _115
REMARK   47  A    between atoms: _115  and  _116
REMARK   48  A    between atoms: _115  and  _118
REMARK   49  A    between atoms: _118  and  _119
REMARK   50  A    between atoms: _122  and  _124
REMARK   51  A    between atoms: _124  and  _125
REMARK   52  A    between atoms: _127  and  _129
REMARK   53  A    between atoms: _129  and  _130
REMARK   54  A    between atoms: _129  and  _132
REMARK   55  A    between atoms: _135  and  _137
REMARK   56  A    between atoms: _137  and  _138
REMARK   57  A    between atoms: _137  and  _140
REMARK   58  A    between atoms: _143  and  _145
REMARK   59  A    between atoms: _145  and  _146
REMARK   60  A    between atoms: _145  and  _148
REMARK   61  A    between atoms: _148  and  _149
REMARK   62  A    between atoms: _152  and  _154
REMARK   63  A    between atoms: _154  and  _155
REMARK   64  A    between atoms: _154  and  _157
REMARK   65  A    between atoms: _157  and  _158
REMARK   66  A    between atoms: _158  and  _159
REMARK   67  A    between atoms: _159  and  _160
REMARK   68  A    between atoms: _169  and  _171
REMARK   69  A    between atoms: _171  and  _172
REMARK   70  A    between atoms: _174  and  _176
REMARK   71  A    between atoms: _176  and  _177
REMARK   72  A    between atoms: _176  and  _179
REMARK   73  A    between atoms: _179  and  _180
REMARK   74  A    between atoms: _180  and  _181
REMARK   75  A    between atoms: _186  and  _188
REMARK   76  A    between atoms: _188  and  _189
REMARK   77  A    between atoms: _188  and  _191
REMARK   78  A    between atoms: _191  and  _192
REMARK   79  A    between atoms: _196  and  _197
REMARK   80  A    between atoms: _202  and  _204
REMARK   81  A    between atoms: _204  and  _205
REMARK   82  A    between atoms: _204  and  _207
REMARK   83  A    between atoms: _207  and  _208
REMARK   84  A    between atoms: _213  and  _215
REMARK   85  A    between atoms: _215  and  _216
REMARK   86  A    between atoms: _215  and  _218
REMARK   87  A    between atoms: _218  and  _219
REMARK   88  A    between atoms: _225  and  _227
REMARK   89  A    between atoms: _227  and  _228
REMARK   90  A    between atoms: _227  and  _230
REMARK   91  A    between atoms: _230  and  _231
REMARK   92  A    between atoms: _234  and  _236
REMARK   93  A    between atoms: _236  and  _237
REMARK   94  A    between atoms: _236  and  _239
REMARK   95  A    between atoms: _239  and  _240
REMARK   96  A    between atoms: _245  and  _246
REMARK   97  A    between atoms: _248  and  _250
REMARK   98  A    between atoms: _250  and  _251
REMARK   99  A    between atoms: _250  and  _253
REMARK  100  A    between atoms: _256  and  _258
REMARK  101  A    between atoms: _258  and  _259
REMARK  102  A    between atoms: _258  and  _261
REMARK  103  A    between atoms: _263  and  _265
REMARK  104  A    between atoms: _265  and  _266
REMARK  105  A    between atoms: _269  and  _271
REMARK  106  A    between atoms: _271  and  _272
REMARK  107  A    between atoms: _271  and  _274
REMARK  108  A    between atoms: _277  and  _279
REMARK  109  A    between atoms: _279  and  _280
REMARK  110  A    between atoms: _279  and  _282
REMARK  111  A    between atoms: _285  and  _287
REMARK  112  A    between atoms: _287  and  _288
REMARK  113  A    between atoms: _287  and  _290
REMARK  114  A    between atoms: _290  and  _291
REMARK  115  A    between atoms: _294  and  _296
REMARK  116  A    between atoms: _296  and  _297
REMARK  117  A    between atoms: _296  and  _299
REMARK  118  A    between atoms: _299  and  _300
REMARK  119  A    between atoms: _303  and  _305
REMARK  120  A    between atoms: _305  and  _306
REMARK  121  A    between atoms: _305  and  _308
REMARK  122  A    between atoms: _311  and  _313
REMARK  123  A    between atoms: _313  and  _314
REMARK  124  A    between atoms: _313  and  _316
REMARK  125  A    between atoms: _319  and  _321
REMARK  126  A    between atoms: _321  and  _322
REMARK  127  A    between atoms: _325  and  _327
REMARK  128  A    between atoms: _327  and  _328
REMARK  129  A    between atoms: _327  and  _330
REMARK  130  A    between atoms: _330  and  _331
REMARK  131  A    between atoms: _335  and  _336
REMARK  132  A    between atoms: _341  and  _343
REMARK  133  A    between atoms: _343  and  _344
REMARK  134  A    between atoms: _343  and  _346
REMARK  135  A    between atoms: _346  and  _347
REMARK  136  A    between atoms: _350  and  _352
REMARK  137  A    between atoms: _352  and  _353
REMARK  138  A    between atoms: _356  and  _358
REMARK  139  A    between atoms: _358  and  _359
REMARK  140  A    between atoms: _358  and  _361
REMARK  141  A    between atoms: _361  and  _362
REMARK  142  A    between atoms: _367  and  _369
REMARK  143  A    between atoms: _369  and  _370
REMARK  144  A    between atoms: _372  and  _374
REMARK  145  A    between atoms: _374  and  _375
REMARK  146  A    between atoms: _374  and  _377
REMARK  147  A    between atoms: _380  and  _382
REMARK  148  A    between atoms: _382  and  _383
REMARK  149  A    between atoms: _382  and  _385
REMARK  150  A    between atoms: _385  and  _386
REMARK  151  A    between atoms: _389  and  _391
REMARK  152  A    between atoms: _391  and  _392
REMARK  153  A    between atoms: _391  and  _394
REMARK  154  A    between atoms: _394  and  _395
REMARK  155  A    between atoms: _398  and  _400
REMARK  156  A    between atoms: _400  and  _401
REMARK  157  A    between atoms: _400  and  _403
REMARK  158  A    between atoms: _403  and  _404
REMARK  159  A    between atoms: _407  and  _409
REMARK  160  A    between atoms: _409  and  _410
REMARK  161  A    between atoms: _409  and  _412
REMARK  162  A    between atoms: _412  and  _413
REMARK  163  A    between atoms: _418  and  _420
REMARK  164  A    between atoms: _420  and  _421
REMARK  165  A    between atoms: _420  and  _423
REMARK  166  A    between atoms: _423  and  _424
REMARK  167  A    between atoms: _424  and  _425
REMARK  168  A    between atoms: _430  and  _432
REMARK  169  A    between atoms: _432  and  _433
REMARK  170  A    between atoms: _432  and  _435
REMARK  171  A    between atoms: _435  and  _436
REMARK  172  A    between atoms: _439  and  _441
REMARK  173  A    between atoms: _441  and  _442
REMARK  174  A    between atoms: _441  and  _444
REMARK  175  A    between atoms: _444  and  _445
REMARK  176  A    between atoms: _445  and  _446
REMARK  177  A    between atoms: _446  and  _447
REMARK  178  A    between atoms: _456  and  _458
REMARK  179  A    between atoms: _458  and  _459
REMARK  180  A    between atoms: _458  and  _461
REMARK  181  A    between atoms: _461  and  _462
REMARK  182  A    between atoms: _462  and  _463
REMARK  183  A    between atoms: _466  and  _468
REMARK  184  A    between atoms: _468  and  _469
REMARK  185  A    between atoms: _468  and  _471
REMARK  186  A    between atoms: _471  and  _472
REMARK  187  A    between atoms: _472  and  _473
REMARK  188  A    between atoms: _473  and  _474
REMARK  189  A    between atoms: _474  and  _475
REMARK  190  A    between atoms: _479  and  _481
REMARK  191  A    between atoms: _481  and  _482
REMARK  192  A    between atoms: _484  and  _486
REMARK  193  A    between atoms: _486  and  _487
REMARK  194  A    between atoms: _490  and  _492
REMARK  195  A    between atoms: _492  and  _493
REMARK  196  A    between atoms: _492  and  _495
REMARK  197  A    between atoms: _495  and  _496
REMARK  198  A    between atoms: _496  and  _497
REMARK  199  A    between atoms: _502  and  _504
REMARK  200  A    between atoms: _504  and  _505
REMARK  201  A    between atoms: _508  and  _510
REMARK  202  A    between atoms: _510  and  _511
REMARK  203  A    between atoms: _510  and  _513
REMARK  204  A    between atoms: _513  and  _514
REMARK  205  A    between atoms: _517  and  _519
REMARK  206  A    between atoms: _519  and  _520
REMARK  207  A    between atoms: _519  and  _522
REMARK  208  A    between atoms: _525  and  _527
REMARK  209  A    between atoms: _527  and  _528
REMARK  210  A    between atoms: _531  and  _533
REMARK  211  A    between atoms: _533  and  _534
REMARK  212  A    between atoms: _537  and  _539
REMARK  213  A    between atoms: _539  and  _540
REMARK  214  A    between atoms: _539  and  _542
REMARK  215  A    between atoms: _542  and  _543
REMARK                            x       y       z     vdW  Elec       q    Type
REMARK                         _______ _______ _______ _____ _____    ______ ____
ROOT
ATOM      1  O   HOH     1     -21.349   6.450  -5.309  0.00  0.00    +0.000 OA
ENDROOT
TORSDOF 0
REMARK  Name = ../refined-set-2016/2c92/2c92_pocket.pdb
REMARK  215 active torsions:
REMARK  status: ('A' for Active; 'I' for Inactive)
REMARK    1  A    between atoms: _1  and  _3
REMARK    2  A    between atoms: _3  and  _4
REMARK    3  A    between atoms: _7  and  _9
REMARK    4  A    between atoms: _9  and  _10
REMARK    5  A    between atoms: _9  and  _12
REMARK    6  A    between atoms: _12  and  _13
REMARK    7  A    between atoms: _15  and  _17
REMARK    8  A    between atoms: _17  and  _18
REMARK    9  A    between atoms: _17  and  _20
REMARK   10  A    between atoms: _20  and  _21
REMARK   11  A    between atoms: _23  and  _25
REMARK   12  A    between atoms: _25  and  _26
REMARK   13  A    between atoms: _25  and  _28
REMARK   14  A    between atoms: _28  and  _29
REMARK   15  A    between atoms: _39  and  _41
REMARK   16  A    between atoms: _41  and  _42
REMARK   17  A    between atoms: _41  and  _44
REMARK   18  A    between atoms: _44  and  _45
REMARK   19  A    between atoms: _50  and  _52
REMARK   20  A    between atoms: _52  and  _53
REMARK   21  A    between atoms: _52  and  _55
REMARK   22  A    between atoms: _57  and  _59
REMARK   23  A    between atoms: _59  and  _60
REMARK   24  A    between atoms: _59  and  _62
REMARK   25  A    between atoms: _65  and  _67
REMARK   26  A    between atoms: _67  and  _68
REMARK   27  A    between atoms: _67  and  _70
REMARK   28  A    between atoms: _70  and  _71
REMARK   29  A    between atoms: _74  and  _76
REMARK   30  A    between atoms: _76  and  _77
REMARK   31  A    between atoms: _79  and  _81
REMARK   32  A    between atoms: _81  and  _82
REMARK   33  A    between atoms: _85  and  _87
REMARK   34  A    between atoms: _87  and  _88
REMARK   35  A    between atoms: _87  and  _90
REMARK   36  A    between atoms: _90  and  _91
REMARK   37  A    between atoms: _94  and  _96
REMARK   38  A    between atoms: _96  and  _97
REMARK   39  A    between atoms: _96  and  _99
REMARK   40  A    between atoms: _99  and  _100
REMARK   41  A    between atoms: _100  and  _101
REMARK   42  A    between atoms: _104  and  _106
REMARK   43  A    between atoms: _106  and  _107
REMARK   44  A    between atoms: _106  and  _109
REMARK   45  A    between atoms: _109  and  _110
REMARK   46  A    between atoms: _113  and  _115
REMARK   47  A    between atoms: _115  and  _116
REMARK   48  A    between atoms: _115  and  _118
REMARK   49  A    between atoms: _118  and  _119
REMARK   50  A    between atoms: _122  and  _124
REMARK   51  A    between atoms: _124  and  _125
REMARK   52  A    between atoms: _127  and  _129
REMARK   53  A    between atoms: _129  and  _130
REMARK   54  A    between atoms: _129  and  _132
REMARK   55  A    between atoms: _135  and  _137
REMARK   56  A    between atoms: _137  and  _138
REMARK   57  A    between atoms: _137  and  _140
REMARK   58  A    between atoms: _143  and  _145
REMARK   59  A    between atoms: _145  and  _146
REMARK   60  A    between atoms: _145  and  _148
REMARK   61  A    between atoms: _148  and  _149
REMARK   62  A    between atoms: _152  and  _154
REMARK   63  A    between atoms: _154  and  _155
REMARK   64  A    between atoms: _154  and  _157
REMARK   65  A    between atoms: _157  and  _158
REMARK   66  A    between atoms: _158  and  _159
REMARK   67  A    between atoms: _159  and  _160
REMARK   68  A    between atoms: _169  and  _171
REMARK   69  A    between atoms: _171  and  _172
REMARK   70  A    between atoms: _174  and  _176
REMARK   71  A    between atoms: _176  and  _177
REMARK   72  A    between atoms: _176  and  _179
REMARK   73  A    between atoms: _179  and  _180
REMARK   74  A    between atoms: _180  and  _181
REMARK   75  A    between atoms: _186  and  _188
REMARK   76  A    between atoms: _188  and  _189
REMARK   77  A    between atoms: _188  and  _191
REMARK   78  A    between atoms: _191  and  _192
REMARK   79  A    between atoms: _196  and  _197
REMARK   80  A    between atoms: _202  and  _204
REMARK   81  A    between atoms: _204  and  _205
REMARK   82  A    between atoms: _204  and  _207
REMARK   83  A    between atoms: _207  and  _208
REMARK   84  A    between atoms: _213  and  _215
REMARK   85  A    between atoms: _215  and  _216
REMARK   86  A    between atoms: _215  and  _218
REMARK   87  A    between atoms: _218  and  _219
REMARK   88  A    between atoms: _225  and  _227
REMARK   89  A    between atoms: _227  and  _228
REMARK   90  A    between atoms: _227  and  _230
REMARK   91  A    between atoms: _230  and  _231
REMARK   92  A    between atoms: _234  and  _236
REMARK   93  A    between atoms: _236  and  _237
REMARK   94  A    between atoms: _236  and  _239
REMARK   95  A    between atoms: _239  and  _240
REMARK   96  A    between atoms: _245  and  _246
REMARK   97  A    between atoms: _248  and  _250
REMARK   98  A    between atoms: _250  and  _251
REMARK   99  A    between atoms: _250  and  _253
REMARK  100  A    between atoms: _256  and  _258
REMARK  101  A    between atoms: _258  and  _259
REMARK  102  A    between atoms: _258  and  _261
REMARK  103  A    between atoms: _263  and  _265
REMARK  104  A    between atoms: _265  and  _266
REMARK  105  A    between atoms: _269  and  _271
REMARK  106  A    between atoms: _271  and  _272
REMARK  107  A    between atoms: _271  and  _274
REMARK  108  A    between atoms: _277  and  _279
REMARK  109  A    between atoms: _279  and  _280
REMARK  110  A    between atoms: _279  and  _282
REMARK  111  A    between atoms: _285  and  _287
REMARK  112  A    between atoms: _287  and  _288
REMARK  113  A    between atoms: _287  and  _290
REMARK  114  A    between atoms: _290  and  _291
REMARK  115  A    between atoms: _294  and  _296
REMARK  116  A    between atoms: _296  and  _297
REMARK  117  A    between atoms: _296  and  _299
REMARK  118  A    between atoms: _299  and  _300
REMARK  119  A    between atoms: _303  and  _305
REMARK  120  A    between atoms: _305  and  _306
REMARK  121  A    between atoms: _305  and  _308
REMARK  122  A    between atoms: _311  and  _313
REMARK  123  A    between atoms: _313  and  _314
REMARK  124  A    between atoms: _313  and  _316
REMARK  125  A    between atoms: _319  and  _321
REMARK  126  A    between atoms: _321  and  _322
REMARK  127  A    between atoms: _325  and  _327
REMARK  128  A    between atoms: _327  and  _328
REMARK  129  A    between atoms: _327  and  _330
REMARK  130  A    between atoms: _330  and  _331
REMARK  131  A    between atoms: _335  and  _336
REMARK  132  A    between atoms: _341  and  _343
REMARK  133  A    between atoms: _343  and  _344
REMARK  134  A    between atoms: _343  and  _346
REMARK  135  A    between atoms: _346  and  _347
REMARK  136  A    between atoms: _350  and  _352
REMARK  137  A    between atoms: _352  and  _353
REMARK  138  A    between atoms: _356  and  _358
REMARK  139  A    between atoms: _358  and  _359
REMARK  140  A    between atoms: _358  and  _361
REMARK  141  A    between atoms: _361  and  _362
REMARK  142  A    between atoms: _367  and  _369
REMARK  143  A    between atoms: _369  and  _370
REMARK  144  A    between atoms: _372  and  _374
REMARK  145  A    between atoms: _374  and  _375
REMARK  146  A    between atoms: _374  and  _377
REMARK  147  A    between atoms: _380  and  _382
REMARK  148  A    between atoms: _382  and  _383
REMARK  149  A    between atoms: _382  and  _385
REMARK  150  A    between atoms: _385  and  _386
REMARK  151  A    between atoms: _389  and  _391
REMARK  152  A    between atoms: _391  and  _392
REMARK  153  A    between atoms: _391  and  _394
REMARK  154  A    between atoms: _394  and  _395
REMARK  155  A    between atoms: _398  and  _400
REMARK  156  A    between atoms: _400  and  _401
REMARK  157  A    between atoms: _400  and  _403
REMARK  158  A    between atoms: _403  and  _404
REMARK  159  A    between atoms: _407  and  _409
REMARK  160  A    between atoms: _409  and  _410
REMARK  161  A    between atoms: _409  and  _412
REMARK  162  A    between atoms: _412  and  _413
REMARK  163  A    between atoms: _418  and  _420
REMARK  164  A    between atoms: _420  and  _421
REMARK  165  A    between atoms: _420  and  _423
REMARK  166  A    between atoms: _423  and  _424
REMARK  167  A    between atoms: _424  and  _425
REMARK  168  A    between atoms: _430  and  _432
REMARK  169  A    between atoms: _432  and  _433
REMARK  170  A    between atoms: _432  and  _435
REMARK  171  A    between atoms: _435  and  _436
REMARK  172  A    between atoms: _439  and  _441
REMARK  173  A    between atoms: _441  and  _442
REMARK  174  A    between atoms: _441  and  _444
REMARK  175  A    between atoms: _444  and  _445
REMARK  176  A    between atoms: _445  and  _446
REMARK  177  A    between atoms: _446  and  _447
REMARK  178  A    between atoms: _456  and  _458
REMARK  179  A    between atoms: _458  and  _459
REMARK  180  A    between atoms: _458  and  _461
REMARK  181  A    between atoms: _461  and  _462
REMARK  182  A    between atoms: _462  and  _463
REMARK  183  A    between atoms: _466  and  _468
REMARK  184  A    between atoms: _468  and  _469
REMARK  185  A    between atoms: _468  and  _471
REMARK  186  A    between atoms: _471  and  _472
REMARK  187  A    between atoms: _472  and  _473
REMARK  188  A    between atoms: _473  and  _474
REMARK  189  A    between atoms: _474  and  _475
REMARK  190  A    between atoms: _479  and  _481
REMARK  191  A    between atoms: _481  and  _482
REMARK  192  A    between atoms: _484  and  _486
REMARK  193  A    between atoms: _486  and  _487
REMARK  194  A    between atoms: _490  and  _492
REMARK  195  A    between atoms: _492  and  _493
REMARK  196  A    between atoms: _492  and  _495
REMARK  197  A    between atoms: _495  and  _496
REMARK  198  A    between atoms: _496  and  _497
REMARK  199  A    between atoms: _502  and  _504
REMARK  200  A    between atoms: _504  and  _505
REMARK  201  A    between atoms: _508  and  _510
REMARK  202  A    between atoms: _510  and  _511
REMARK  203  A    between atoms: _510  and  _513
REMARK  204  A    between atoms: _513  and  _514
REMARK  205  A    between atoms: _517  and  _519
REMARK  206  A    between atoms: _519  and  _520
REMARK  207  A    between atoms: _519  and  _522
REMARK  208  A    between atoms: _525  and  _527
REMARK  209  A    between atoms: _527  and  _528
REMARK  210  A    between atoms: _531  and  _533
REMARK  211  A    between atoms: _533  and  _534
REMARK  212  A    between atoms: _537  and  _539
REMARK  213  A    between atoms: _539  and  _540
REMARK  214  A    between atoms: _539  and  _542
REMARK  215  A    between atoms: _542  and  _543
REMARK                            x       y       z     vdW  Elec       q    Type
REMARK                         _______ _______ _______ _____ _____    ______ ____
ROOT
ATOM      1  O   HOH     1     -17.146   7.070  -4.908  0.00  0.00    +0.000 OA
ENDROOT
TORSDOF 0
REMARK  Name = ../refined-set-2016/2c92/2c92_pocket.pdb
REMARK  215 active torsions:
REMARK  status: ('A' for Active; 'I' for Inactive)
REMARK    1  A    between atoms: _1  and  _3
REMARK    2  A    between atoms: _3  and  _4
REMARK    3  A    between atoms: _7  and  _9
REMARK    4  A    between atoms: _9  and  _10
REMARK    5  A    between atoms: _9  and  _12
REMARK    6  A    between atoms: _12  and  _13
REMARK    7  A    between atoms: _15  and  _17
REMARK    8  A    between atoms: _17  and  _18
REMARK    9  A    between atoms: _17  and  _20
REMARK   10  A    between atoms: _20  and  _21
REMARK   11  A    between atoms: _23  and  _25
REMARK   12  A    between atoms: _25  and  _26
REMARK   13  A    between atoms: _25  and  _28
REMARK   14  A    between atoms: _28  and  _29
REMARK   15  A    between atoms: _39  and  _41
REMARK   16  A    between atoms: _41  and  _42
REMARK   17  A    between atoms: _41  and  _44
REMARK   18  A    between atoms: _44  and  _45
REMARK   19  A    between atoms: _50  and  _52
REMARK   20  A    between atoms: _52  and  _53
REMARK   21  A    between atoms: _52  and  _55
REMARK   22  A    between atoms: _57  and  _59
REMARK   23  A    between atoms: _59  and  _60
REMARK   24  A    between atoms: _59  and  _62
REMARK   25  A    between atoms: _65  and  _67
REMARK   26  A    between atoms: _67  and  _68
REMARK   27  A    between atoms: _67  and  _70
REMARK   28  A    between atoms: _70  and  _71
REMARK   29  A    between atoms: _74  and  _76
REMARK   30  A    between atoms: _76  and  _77
REMARK   31  A    between atoms: _79  and  _81
REMARK   32  A    between atoms: _81  and  _82
REMARK   33  A    between atoms: _85  and  _87
REMARK   34  A    between atoms: _87  and  _88
REMARK   35  A    between atoms: _87  and  _90
REMARK   36  A    between atoms: _90  and  _91
REMARK   37  A    between atoms: _94  and  _96
REMARK   38  A    between atoms: _96  and  _97
REMARK   39  A    between atoms: _96  and  _99
REMARK   40  A    between atoms: _99  and  _100
REMARK   41  A    between atoms: _100  and  _101
REMARK   42  A    between atoms: _104  and  _106
REMARK   43  A    between atoms: _106  and  _107
REMARK   44  A    between atoms: _106  and  _109
REMARK   45  A    between atoms: _109  and  _110
REMARK   46  A    between atoms: _113  and  _115
REMARK   47  A    between atoms: _115  and  _116
REMARK   48  A    between atoms: _115  and  _118
REMARK   49  A    between atoms: _118  and  _119
REMARK   50  A    between atoms: _122  and  _124
REMARK   51  A    between atoms: _124  and  _125
REMARK   52  A    between atoms: _127  and  _129
REMARK   53  A    between atoms: _129  and  _130
REMARK   54  A    between atoms: _129  and  _132
REMARK   55  A    between atoms: _135  and  _137
REMARK   56  A    between atoms: _137  and  _138
REMARK   57  A    between atoms: _137  and  _140
REMARK   58  A    between atoms: _143  and  _145
REMARK   59  A    between atoms: _145  and  _146
REMARK   60  A    between atoms: _145  and  _148
REMARK   61  A    between atoms: _148  and  _149
REMARK   62  A    between atoms: _152  and  _154
REMARK   63  A    between atoms: _154  and  _155
REMARK   64  A    between atoms: _154  and  _157
REMARK   65  A    between atoms: _157  and  _158
REMARK   66  A    between atoms: _158  and  _159
REMARK   67  A    between atoms: _159  and  _160
REMARK   68  A    between atoms: _169  and  _171
REMARK   69  A    between atoms: _171  and  _172
REMARK   70  A    between atoms: _174  and  _176
REMARK   71  A    between atoms: _176  and  _177
REMARK   72  A    between atoms: _176  and  _179
REMARK   73  A    between atoms: _179  and  _180
REMARK   74  A    between atoms: _180  and  _181
REMARK   75  A    between atoms: _186  and  _188
REMARK   76  A    between atoms: _188  and  _189
REMARK   77  A    between atoms: _188  and  _191
REMARK   78  A    between atoms: _191  and  _192
REMARK   79  A    between atoms: _196  and  _197
REMARK   80  A    between atoms: _202  and  _204
REMARK   81  A    between atoms: _204  and  _205
REMARK   82  A    between atoms: _204  and  _207
REMARK   83  A    between atoms: _207  and  _208
REMARK   84  A    between atoms: _213  and  _215
REMARK   85  A    between atoms: _215  and  _216
REMARK   86  A    between atoms: _215  and  _218
REMARK   87  A    between atoms: _218  and  _219
REMARK   88  A    between atoms: _225  and  _227
REMARK   89  A    between atoms: _227  and  _228
REMARK   90  A    between atoms: _227  and  _230
REMARK   91  A    between atoms: _230  and  _231
REMARK   92  A    between atoms: _234  and  _236
REMARK   93  A    between atoms: _236  and  _237
REMARK   94  A    between atoms: _236  and  _239
REMARK   95  A    between atoms: _239  and  _240
REMARK   96  A    between atoms: _245  and  _246
REMARK   97  A    between atoms: _248  and  _250
REMARK   98  A    between atoms: _250  and  _251
REMARK   99  A    between atoms: _250  and  _253
REMARK  100  A    between atoms: _256  and  _258
REMARK  101  A    between atoms: _258  and  _259
REMARK  102  A    between atoms: _258  and  _261
REMARK  103  A    between atoms: _263  and  _265
REMARK  104  A    between atoms: _265  and  _266
REMARK  105  A    between atoms: _269  and  _271
REMARK  106  A    between atoms: _271  and  _272
REMARK  107  A    between atoms: _271  and  _274
REMARK  108  A    between atoms: _277  and  _279
REMARK  109  A    between atoms: _279  and  _280
REMARK  110  A    between atoms: _279  and  _282
REMARK  111  A    between atoms: _285  and  _287
REMARK  112  A    between atoms: _287  and  _288
REMARK  113  A    between atoms: _287  and  _290
REMARK  114  A    between atoms: _290  and  _291
REMARK  115  A    between atoms: _294  and  _296
REMARK  116  A    between atoms: _296  and  _297
REMARK  117  A    between atoms: _296  and  _299
REMARK  118  A    between atoms: _299  and  _300
REMARK  119  A    between atoms: _303  and  _305
REMARK  120  A    between atoms: _305  and  _306
REMARK  121  A    between atoms: _305  and  _308
REMARK  122  A    between atoms: _311  and  _313
REMARK  123  A    between atoms: _313  and  _314
REMARK  124  A    between atoms: _313  and  _316
REMARK  125  A    between atoms: _319  and  _321
REMARK  126  A    between atoms: _321  and  _322
REMARK  127  A    between atoms: _325  and  _327
REMARK  128  A    between atoms: _327  and  _328
REMARK  129  A    between atoms: _327  and  _330
REMARK  130  A    between atoms: _330  and  _331
REMARK  131  A    between atoms: _335  and  _336
REMARK  132  A    between atoms: _341  and  _343
REMARK  133  A    between atoms: _343  and  _344
REMARK  134  A    between atoms: _343  and  _346
REMARK  135  A    between atoms: _346  and  _347
REMARK  136  A    between atoms: _350  and  _352
REMARK  137  A    between atoms: _352  and  _353
REMARK  138  A    between atoms: _356  and  _358
REMARK  139  A    between atoms: _358  and  _359
REMARK  140  A    between atoms: _358  and  _361
REMARK  141  A    between atoms: _361  and  _362
REMARK  142  A    between atoms: _367  and  _369
REMARK  143  A    between atoms: _369  and  _370
REMARK  144  A    between atoms: _372  and  _374
REMARK  145  A    between atoms: _374  and  _375
REMARK  146  A    between atoms: _374  and  _377
REMARK  147  A    between atoms: _380  and  _382
REMARK  148  A    between atoms: _382  and  _383
REMARK  149  A    between atoms: _382  and  _385
REMARK  150  A    between atoms: _385  and  _386
REMARK  151  A    between atoms: _389  and  _391
REMARK  152  A    between atoms: _391  and  _392
REMARK  153  A    between atoms: _391  and  _394
REMARK  154  A    between atoms: _394  and  _395
REMARK  155  A    between atoms: _398  and  _400
REMARK  156  A    between atoms: _400  and  _401
REMARK  157  A    between atoms: _400  and  _403
REMARK  158  A    between atoms: _403  and  _404
REMARK  159  A    between atoms: _407  and  _409
REMARK  160  A    between atoms: _409  and  _410
REMARK  161  A    between atoms: _409  and  _412
REMARK  162  A    between atoms: _412  and  _413
REMARK  163  A    between atoms: _418  and  _420
REMARK  164  A    between atoms: _420  and  _421
REMARK  165  A    between atoms: _420  and  _423
REMARK  166  A    between atoms: _423  and  _424
REMARK  167  A    between atoms: _424  and  _425
REMARK  168  A    between atoms: _430  and  _432
REMARK  169  A    between atoms: _432  and  _433
REMARK  170  A    between atoms: _432  and  _435
REMARK  171  A    between atoms: _435  and  _436
REMARK  172  A    between atoms: _439  and  _441
REMARK  173  A    between atoms: _441  and  _442
REMARK  174  A    between atoms: _441  and  _444
REMARK  175  A    between atoms: _444  and  _445
REMARK  176  A    between atoms: _445  and  _446
REMARK  177  A    between atoms: _446  and  _447
REMARK  178  A    between atoms: _456  and  _458
REMARK  179  A    between atoms: _458  and  _459
REMARK  180  A    between atoms: _458  and  _461
REMARK  181  A    between atoms: _461  and  _462
REMARK  182  A    between atoms: _462  and  _463
REMARK  183  A    between atoms: _466  and  _468
REMARK  184  A    between atoms: _468  and  _469
REMARK  185  A    between atoms: _468  and  _471
REMARK  186  A    between atoms: _471  and  _472
REMARK  187  A    between atoms: _472  and  _473
REMARK  188  A    between atoms: _473  and  _474
REMARK  189  A    between atoms: _474  and  _475
REMARK  190  A    between atoms: _479  and  _481
REMARK  191  A    between atoms: _481  and  _482
REMARK  192  A    between atoms: _484  and  _486
REMARK  193  A    between atoms: _486  and  _487
REMARK  194  A    between atoms: _490  and  _492
REMARK  195  A    between atoms: _492  and  _493
REMARK  196  A    between atoms: _492  and  _495
REMARK  197  A    between atoms: _495  and  _496
REMARK  198  A    between atoms: _496  and  _497
REMARK  199  A    between atoms: _502  and  _504
REMARK  200  A    between atoms: _504  and  _505
REMARK  201  A    between atoms: _508  and  _510
REMARK  202  A    between atoms: _510  and  _511
REMARK  203  A    between atoms: _510  and  _513
REMARK  204  A    between atoms: _513  and  _514
REMARK  205  A    between atoms: _517  and  _519
REMARK  206  A    between atoms: _519  and  _520
REMARK  207  A    between atoms: _519  and  _522
REMARK  208  A    between atoms: _525  and  _527
REMARK  209  A    between atoms: _527  and  _528
REMARK  210  A    between atoms: _531  and  _533
REMARK  211  A    between atoms: _533  and  _534
REMARK  212  A    between atoms: _537  and  _539
REMARK  213  A    between atoms: _539  and  _540
REMARK  214  A    between atoms: _539  and  _542
REMARK  215  A    between atoms: _542  and  _543
REMARK                            x       y       z     vdW  Elec       q    Type
REMARK                         _______ _______ _______ _____ _____    ______ ____
ROOT
ATOM      1  O   HOH     1     -22.119   5.919  -3.046  0.00  0.00    +0.000 OA
ENDROOT
TORSDOF 0
REMARK  Name = ../refined-set-2016/2c92/2c92_pocket.pdb
REMARK  215 active torsions:
REMARK  status: ('A' for Active; 'I' for Inactive)
REMARK    1  A    between atoms: _1  and  _3
REMARK    2  A    between atoms: _3  and  _4
REMARK    3  A    between atoms: _7  and  _9
REMARK    4  A    between atoms: _9  and  _10
REMARK    5  A    between atoms: _9  and  _12
REMARK    6  A    between atoms: _12  and  _13
REMARK    7  A    between atoms: _15  and  _17
REMARK    8  A    between atoms: _17  and  _18
REMARK    9  A    between atoms: _17  and  _20
REMARK   10  A    between atoms: _20  and  _21
REMARK   11  A    between atoms: _23  and  _25
REMARK   12  A    between atoms: _25  and  _26
REMARK   13  A    between atoms: _25  and  _28
REMARK   14  A    between atoms: _28  and  _29
REMARK   15  A    between atoms: _39  and  _41
REMARK   16  A    between atoms: _41  and  _42
REMARK   17  A    between atoms: _41  and  _44
REMARK   18  A    between atoms: _44  and  _45
REMARK   19  A    between atoms: _50  and  _52
REMARK   20  A    between atoms: _52  and  _53
REMARK   21  A    between atoms: _52  and  _55
REMARK   22  A    between atoms: _57  and  _59
REMARK   23  A    between atoms: _59  and  _60
REMARK   24  A    between atoms: _59  and  _62
REMARK   25  A    between atoms: _65  and  _67
REMARK   26  A    between atoms: _67  and  _68
REMARK   27  A    between atoms: _67  and  _70
REMARK   28  A    between atoms: _70  and  _71
REMARK   29  A    between atoms: _74  and  _76
REMARK   30  A    between atoms: _76  and  _77
REMARK   31  A    between atoms: _79  and  _81
REMARK   32  A    between atoms: _81  and  _82
REMARK   33  A    between atoms: _85  and  _87
REMARK   34  A    between atoms: _87  and  _88
REMARK   35  A    between atoms: _87  and  _90
REMARK   36  A    between atoms: _90  and  _91
REMARK   37  A    between atoms: _94  and  _96
REMARK   38  A    between atoms: _96  and  _97
REMARK   39  A    between atoms: _96  and  _99
REMARK   40  A    between atoms: _99  and  _100
REMARK   41  A    between atoms: _100  and  _101
REMARK   42  A    between atoms: _104  and  _106
REMARK   43  A    between atoms: _106  and  _107
REMARK   44  A    between atoms: _106  and  _109
REMARK   45  A    between atoms: _109  and  _110
REMARK   46  A    between atoms: _113  and  _115
REMARK   47  A    between atoms: _115  and  _116
REMARK   48  A    between atoms: _115  and  _118
REMARK   49  A    between atoms: _118  and  _119
REMARK   50  A    between atoms: _122  and  _124
REMARK   51  A    between atoms: _124  and  _125
REMARK   52  A    between atoms: _127  and  _129
REMARK   53  A    between atoms: _129  and  _130
REMARK   54  A    between atoms: _129  and  _132
REMARK   55  A    between atoms: _135  and  _137
REMARK   56  A    between atoms: _137  and  _138
REMARK   57  A    between atoms: _137  and  _140
REMARK   58  A    between atoms: _143  and  _145
REMARK   59  A    between atoms: _145  and  _146
REMARK   60  A    between atoms: _145  and  _148
REMARK   61  A    between atoms: _148  and  _149
REMARK   62  A    between atoms: _152  and  _154
REMARK   63  A    between atoms: _154  and  _155
REMARK   64  A    between atoms: _154  and  _157
REMARK   65  A    between atoms: _157  and  _158
REMARK   66  A    between atoms: _158  and  _159
REMARK   67  A    between atoms: _159  and  _160
REMARK   68  A    between atoms: _169  and  _171
REMARK   69  A    between atoms: _171  and  _172
REMARK   70  A    between atoms: _174  and  _176
REMARK   71  A    between atoms: _176  and  _177
REMARK   72  A    between atoms: _176  and  _179
REMARK   73  A    between atoms: _179  and  _180
REMARK   74  A    between atoms: _180  and  _181
REMARK   75  A    between atoms: _186  and  _188
REMARK   76  A    between atoms: _188  and  _189
REMARK   77  A    between atoms: _188  and  _191
REMARK   78  A    between atoms: _191  and  _192
REMARK   79  A    between atoms: _196  and  _197
REMARK   80  A    between atoms: _202  and  _204
REMARK   81  A    between atoms: _204  and  _205
REMARK   82  A    between atoms: _204  and  _207
REMARK   83  A    between atoms: _207  and  _208
REMARK   84  A    between atoms: _213  and  _215
REMARK   85  A    between atoms: _215  and  _216
REMARK   86  A    between atoms: _215  and  _218
REMARK   87  A    between atoms: _218  and  _219
REMARK   88  A    between atoms: _225  and  _227
REMARK   89  A    between atoms: _227  and  _228
REMARK   90  A    between atoms: _227  and  _230
REMARK   91  A    between atoms: _230  and  _231
REMARK   92  A    between atoms: _234  and  _236
REMARK   93  A    between atoms: _236  and  _237
REMARK   94  A    between atoms: _236  and  _239
REMARK   95  A    between atoms: _239  and  _240
REMARK   96  A    between atoms: _245  and  _246
REMARK   97  A    between atoms: _248  and  _250
REMARK   98  A    between atoms: _250  and  _251
REMARK   99  A    between atoms: _250  and  _253
REMARK  100  A    between atoms: _256  and  _258
REMARK  101  A    between atoms: _258  and  _259
REMARK  102  A    between atoms: _258  and  _261
REMARK  103  A    between atoms: _263  and  _265
REMARK  104  A    between atoms: _265  and  _266
REMARK  105  A    between atoms: _269  and  _271
REMARK  106  A    between atoms: _271  and  _272
REMARK  107  A    between atoms: _271  and  _274
REMARK  108  A    between atoms: _277  and  _279
REMARK  109  A    between atoms: _279  and  _280
REMARK  110  A    between atoms: _279  and  _282
REMARK  111  A    between atoms: _285  and  _287
REMARK  112  A    between atoms: _287  and  _288
REMARK  113  A    between atoms: _287  and  _290
REMARK  114  A    between atoms: _290  and  _291
REMARK  115  A    between atoms: _294  and  _296
REMARK  116  A    between atoms: _296  and  _297
REMARK  117  A    between atoms: _296  and  _299
REMARK  118  A    between atoms: _299  and  _300
REMARK  119  A    between atoms: _303  and  _305
REMARK  120  A    between atoms: _305  and  _306
REMARK  121  A    between atoms: _305  and  _308
REMARK  122  A    between atoms: _311  and  _313
REMARK  123  A    between atoms: _313  and  _314
REMARK  124  A    between atoms: _313  and  _316
REMARK  125  A    between atoms: _319  and  _321
REMARK  126  A    between atoms: _321  and  _322
REMARK  127  A    between atoms: _325  and  _327
REMARK  128  A    between atoms: _327  and  _328
REMARK  129  A    between atoms: _327  and  _330
REMARK  130  A    between atoms: _330  and  _331
REMARK  131  A    between atoms: _335  and  _336
REMARK  132  A    between atoms: _341  and  _343
REMARK  133  A    between atoms: _343  and  _344
REMARK  134  A    between atoms: _343  and  _346
REMARK  135  A    between atoms: _346  and  _347
REMARK  136  A    between atoms: _350  and  _352
REMARK  137  A    between atoms: _352  and  _353
REMARK  138  A    between atoms: _356  and  _358
REMARK  139  A    between atoms: _358  and  _359
REMARK  140  A    between atoms: _358  and  _361
REMARK  141  A    between atoms: _361  and  _362
REMARK  142  A    between atoms: _367  and  _369
REMARK  143  A    between atoms: _369  and  _370
REMARK  144  A    between atoms: _372  and  _374
REMARK  145  A    between atoms: _374  and  _375
REMARK  146  A    between atoms: _374  and  _377
REMARK  147  A    between atoms: _380  and  _382
REMARK  148  A    between atoms: _382  and  _383
REMARK  149  A    between atoms: _382  and  _385
REMARK  150  A    between atoms: _385  and  _386
REMARK  151  A    between atoms: _389  and  _391
REMARK  152  A    between atoms: _391  and  _392
REMARK  153  A    between atoms: _391  and  _394
REMARK  154  A    between atoms: _394  and  _395
REMARK  155  A    between atoms: _398  and  _400
REMARK  156  A    between atoms: _400  and  _401
REMARK  157  A    between atoms: _400  and  _403
REMARK  158  A    between atoms: _403  and  _404
REMARK  159  A    between atoms: _407  and  _409
REMARK  160  A    between atoms: _409  and  _410
REMARK  161  A    between atoms: _409  and  _412
REMARK  162  A    between atoms: _412  and  _413
REMARK  163  A    between atoms: _418  and  _420
REMARK  164  A    between atoms: _420  and  _421
REMARK  165  A    between atoms: _420  and  _423
REMARK  166  A    between atoms: _423  and  _424
REMARK  167  A    between atoms: _424  and  _425
REMARK  168  A    between atoms: _430  and  _432
REMARK  169  A    between atoms: _432  and  _433
REMARK  170  A    between atoms: _432  and  _435
REMARK  171  A    between atoms: _435  and  _436
REMARK  172  A    between atoms: _439  and  _441
REMARK  173  A    between atoms: _441  and  _442
REMARK  174  A    between atoms: _441  and  _444
REMARK  175  A    between atoms: _444  and  _445
REMARK  176  A    between atoms: _445  and  _446
REMARK  177  A    between atoms: _446  and  _447
REMARK  178  A    between atoms: _456  and  _458
REMARK  179  A    between atoms: _458  and  _459
REMARK  180  A    between atoms: _458  and  _461
REMARK  181  A    between atoms: _461  and  _462
REMARK  182  A    between atoms: _462  and  _463
REMARK  183  A    between atoms: _466  and  _468
REMARK  184  A    between atoms: _468  and  _469
REMARK  185  A    between atoms: _468  and  _471
REMARK  186  A    between atoms: _471  and  _472
REMARK  187  A    between atoms: _472  and  _473
REMARK  188  A    between atoms: _473  and  _474
REMARK  189  A    between atoms: _474  and  _475
REMARK  190  A    between atoms: _479  and  _481
REMARK  191  A    between atoms: _481  and  _482
REMARK  192  A    between atoms: _484  and  _486
REMARK  193  A    between atoms: _486  and  _487
REMARK  194  A    between atoms: _490  and  _492
REMARK  195  A    between atoms: _492  and  _493
REMARK  196  A    between atoms: _492  and  _495
REMARK  197  A    between atoms: _495  and  _496
REMARK  198  A    between atoms: _496  and  _497
REMARK  199  A    between atoms: _502  and  _504
REMARK  200  A    between atoms: _504  and  _505
REMARK  201  A    between atoms: _508  and  _510
REMARK  202  A    between atoms: _510  and  _511
REMARK  203  A    between atoms: _510  and  _513
REMARK  204  A    between atoms: _513  and  _514
REMARK  205  A    between atoms: _517  and  _519
REMARK  206  A    between atoms: _519  and  _520
REMARK  207  A    between atoms: _519  and  _522
REMARK  208  A    between atoms: _525  and  _527
REMARK  209  A    between atoms: _527  and  _528
REMARK  210  A    between atoms: _531  and  _533
REMARK  211  A    between atoms: _533  and  _534
REMARK  212  A    between atoms: _537  and  _539
REMARK  213  A    between atoms: _539  and  _540
REMARK  214  A    between atoms: _539  and  _542
REMARK  215  A    between atoms: _542  and  _543
REMARK                            x       y       z     vdW  Elec       q    Type
REMARK                         _______ _______ _______ _____ _____    ______ ____
ROOT
ATOM      1  O   HOH     1     -22.173   4.194   0.972  0.00  0.00    +0.000 OA
ENDROOT
TORSDOF 0
REMARK  Name = ../refined-set-2016/2c92/2c92_pocket.pdb
REMARK  215 active torsions:
REMARK  status: ('A' for Active; 'I' for Inactive)
REMARK    1  A    between atoms: _1  and  _3
REMARK    2  A    between atoms: _3  and  _4
REMARK    3  A    between atoms: _7  and  _9
REMARK    4  A    between atoms: _9  and  _10
REMARK    5  A    between atoms: _9  and  _12
REMARK    6  A    between atoms: _12  and  _13
REMARK    7  A    between atoms: _15  and  _17
REMARK    8  A    between atoms: _17  and  _18
REMARK    9  A    between atoms: _17  and  _20
REMARK   10  A    between atoms: _20  and  _21
REMARK   11  A    between atoms: _23  and  _25
REMARK   12  A    between atoms: _25  and  _26
REMARK   13  A    between atoms: _25  and  _28
REMARK   14  A    between atoms: _28  and  _29
REMARK   15  A    between atoms: _39  and  _41
REMARK   16  A    between atoms: _41  and  _42
REMARK   17  A    between atoms: _41  and  _44
REMARK   18  A    between atoms: _44  and  _45
REMARK   19  A    between atoms: _50  and  _52
REMARK   20  A    between atoms: _52  and  _53
REMARK   21  A    between atoms: _52  and  _55
REMARK   22  A    between atoms: _57  and  _59
REMARK   23  A    between atoms: _59  and  _60
REMARK   24  A    between atoms: _59  and  _62
REMARK   25  A    between atoms: _65  and  _67
REMARK   26  A    between atoms: _67  and  _68
REMARK   27  A    between atoms: _67  and  _70
REMARK   28  A    between atoms: _70  and  _71
REMARK   29  A    between atoms: _74  and  _76
REMARK   30  A    between atoms: _76  and  _77
REMARK   31  A    between atoms: _79  and  _81
REMARK   32  A    between atoms: _81  and  _82
REMARK   33  A    between atoms: _85  and  _87
REMARK   34  A    between atoms: _87  and  _88
REMARK   35  A    between atoms: _87  and  _90
REMARK   36  A    between atoms: _90  and  _91
REMARK   37  A    between atoms: _94  and  _96
REMARK   38  A    between atoms: _96  and  _97
REMARK   39  A    between atoms: _96  and  _99
REMARK   40  A    between atoms: _99  and  _100
REMARK   41  A    between atoms: _100  and  _101
REMARK   42  A    between atoms: _104  and  _106
REMARK   43  A    between atoms: _106  and  _107
REMARK   44  A    between atoms: _106  and  _109
REMARK   45  A    between atoms: _109  and  _110
REMARK   46  A    between atoms: _113  and  _115
REMARK   47  A    between atoms: _115  and  _116
REMARK   48  A    between atoms: _115  and  _118
REMARK   49  A    between atoms: _118  and  _119
REMARK   50  A    between atoms: _122  and  _124
REMARK   51  A    between atoms: _124  and  _125
REMARK   52  A    between atoms: _127  and  _129
REMARK   53  A    between atoms: _129  and  _130
REMARK   54  A    between atoms: _129  and  _132
REMARK   55  A    between atoms: _135  and  _137
REMARK   56  A    between atoms: _137  and  _138
REMARK   57  A    between atoms: _137  and  _140
REMARK   58  A    between atoms: _143  and  _145
REMARK   59  A    between atoms: _145  and  _146
REMARK   60  A    between atoms: _145  and  _148
REMARK   61  A    between atoms: _148  and  _149
REMARK   62  A    between atoms: _152  and  _154
REMARK   63  A    between atoms: _154  and  _155
REMARK   64  A    between atoms: _154  and  _157
REMARK   65  A    between atoms: _157  and  _158
REMARK   66  A    between atoms: _158  and  _159
REMARK   67  A    between atoms: _159  and  _160
REMARK   68  A    between atoms: _169  and  _171
REMARK   69  A    between atoms: _171  and  _172
REMARK   70  A    between atoms: _174  and  _176
REMARK   71  A    between atoms: _176  and  _177
REMARK   72  A    between atoms: _176  and  _179
REMARK   73  A    between atoms: _179  and  _180
REMARK   74  A    between atoms: _180  and  _181
REMARK   75  A    between atoms: _186  and  _188
REMARK   76  A    between atoms: _188  and  _189
REMARK   77  A    between atoms: _188  and  _191
REMARK   78  A    between atoms: _191  and  _192
REMARK   79  A    between atoms: _196  and  _197
REMARK   80  A    between atoms: _202  and  _204
REMARK   81  A    between atoms: _204  and  _205
REMARK   82  A    between atoms: _204  and  _207
REMARK   83  A    between atoms: _207  and  _208
REMARK   84  A    between atoms: _213  and  _215
REMARK   85  A    between atoms: _215  and  _216
REMARK   86  A    between atoms: _215  and  _218
REMARK   87  A    between atoms: _218  and  _219
REMARK   88  A    between atoms: _225  and  _227
REMARK   89  A    between atoms: _227  and  _228
REMARK   90  A    between atoms: _227  and  _230
REMARK   91  A    between atoms: _230  and  _231
REMARK   92  A    between atoms: _234  and  _236
REMARK   93  A    between atoms: _236  and  _237
REMARK   94  A    between atoms: _236  and  _239
REMARK   95  A    between atoms: _239  and  _240
REMARK   96  A    between atoms: _245  and  _246
REMARK   97  A    between atoms: _248  and  _250
REMARK   98  A    between atoms: _250  and  _251
REMARK   99  A    between atoms: _250  and  _253
REMARK  100  A    between atoms: _256  and  _258
REMARK  101  A    between atoms: _258  and  _259
REMARK  102  A    between atoms: _258  and  _261
REMARK  103  A    between atoms: _263  and  _265
REMARK  104  A    between atoms: _265  and  _266
REMARK  105  A    between atoms: _269  and  _271
REMARK  106  A    between atoms: _271  and  _272
REMARK  107  A    between atoms: _271  and  _274
REMARK  108  A    between atoms: _277  and  _279
REMARK  109  A    between atoms: _279  and  _280
REMARK  110  A    between atoms: _279  and  _282
REMARK  111  A    between atoms: _285  and  _287
REMARK  112  A    between atoms: _287  and  _288
REMARK  113  A    between atoms: _287  and  _290
REMARK  114  A    between atoms: _290  and  _291
REMARK  115  A    between atoms: _294  and  _296
REMARK  116  A    between atoms: _296  and  _297
REMARK  117  A    between atoms: _296  and  _299
REMARK  118  A    between atoms: _299  and  _300
REMARK  119  A    between atoms: _303  and  _305
REMARK  120  A    between atoms: _305  and  _306
REMARK  121  A    between atoms: _305  and  _308
REMARK  122  A    between atoms: _311  and  _313
REMARK  123  A    between atoms: _313  and  _314
REMARK  124  A    between atoms: _313  and  _316
REMARK  125  A    between atoms: _319  and  _321
REMARK  126  A    between atoms: _321  and  _322
REMARK  127  A    between atoms: _325  and  _327
REMARK  128  A    between atoms: _327  and  _328
REMARK  129  A    between atoms: _327  and  _330
REMARK  130  A    between atoms: _330  and  _331
REMARK  131  A    between atoms: _335  and  _336
REMARK  132  A    between atoms: _341  and  _343
REMARK  133  A    between atoms: _343  and  _344
REMARK  134  A    between atoms: _343  and  _346
REMARK  135  A    between atoms: _346  and  _347
REMARK  136  A    between atoms: _350  and  _352
REMARK  137  A    between atoms: _352  and  _353
REMARK  138  A    between atoms: _356  and  _358
REMARK  139  A    between atoms: _358  and  _359
REMARK  140  A    between atoms: _358  and  _361
REMARK  141  A    between atoms: _361  and  _362
REMARK  142  A    between atoms: _367  and  _369
REMARK  143  A    between atoms: _369  and  _370
REMARK  144  A    between atoms: _372  and  _374
REMARK  145  A    between atoms: _374  and  _375
REMARK  146  A    between atoms: _374  and  _377
REMARK  147  A    between atoms: _380  and  _382
REMARK  148  A    between atoms: _382  and  _383
REMARK  149  A    between atoms: _382  and  _385
REMARK  150  A    between atoms: _385  and  _386
REMARK  151  A    between atoms: _389  and  _391
REMARK  152  A    between atoms: _391  and  _392
REMARK  153  A    between atoms: _391  and  _394
REMARK  154  A    between atoms: _394  and  _395
REMARK  155  A    between atoms: _398  and  _400
REMARK  156  A    between atoms: _400  and  _401
REMARK  157  A    between atoms: _400  and  _403
REMARK  158  A    between atoms: _403  and  _404
REMARK  159  A    between atoms: _407  and  _409
REMARK  160  A    between atoms: _409  and  _410
REMARK  161  A    between atoms: _409  and  _412
REMARK  162  A    between atoms: _412  and  _413
REMARK  163  A    between atoms: _418  and  _420
REMARK  164  A    between atoms: _420  and  _421
REMARK  165  A    between atoms: _420  and  _423
REMARK  166  A    between atoms: _423  and  _424
REMARK  167  A    between atoms: _424  and  _425
REMARK  168  A    between atoms: _430  and  _432
REMARK  169  A    between atoms: _432  and  _433
REMARK  170  A    between atoms: _432  and  _435
REMARK  171  A    between atoms: _435  and  _436
REMARK  172  A    between atoms: _439  and  _441
REMARK  173  A    between atoms: _441  and  _442
REMARK  174  A    between atoms: _441  and  _444
REMARK  175  A    between atoms: _444  and  _445
REMARK  176  A    between atoms: _445  and  _446
REMARK  177  A    between atoms: _446  and  _447
REMARK  178  A    between atoms: _456  and  _458
REMARK  179  A    between atoms: _458  and  _459
REMARK  180  A    between atoms: _458  and  _461
REMARK  181  A    between atoms: _461  and  _462
REMARK  182  A    between atoms: _462  and  _463
REMARK  183  A    between atoms: _466  and  _468
REMARK  184  A    between atoms: _468  and  _469
REMARK  185  A    between atoms: _468  and  _471
REMARK  186  A    between atoms: _471  and  _472
REMARK  187  A    between atoms: _472  and  _473
REMARK  188  A    between atoms: _473  and  _474
REMARK  189  A    between atoms: _474  and  _475
REMARK  190  A    between atoms: _479  and  _481
REMARK  191  A    between atoms: _481  and  _482
REMARK  192  A    between atoms: _484  and  _486
REMARK  193  A    between atoms: _486  and  _487
REMARK  194  A    between atoms: _490  and  _492
REMARK  195  A    between atoms: _492  and  _493
REMARK  196  A    between atoms: _492  and  _495
REMARK  197  A    between atoms: _495  and  _496
REMARK  198  A    between atoms: _496  and  _497
REMARK  199  A    between atoms: _502  and  _504
REMARK  200  A    between atoms: _504  and  _505
REMARK  201  A    between atoms: _508  and  _510
REMARK  202  A    between atoms: _510  and  _511
REMARK  203  A    between atoms: _510  and  _513
REMARK  204  A    between atoms: _513  and  _514
REMARK  205  A    between atoms: _517  and  _519
REMARK  206  A    between atoms: _519  and  _520
REMARK  207  A    between atoms: _519  and  _522
REMARK  208  A    between atoms: _525  and  _527
REMARK  209  A    between atoms: _527  and  _528
REMARK  210  A    between atoms: _531  and  _533
REMARK  211  A    between atoms: _533  and  _534
REMARK  212  A    between atoms: _537  and  _539
REMARK  213  A    between atoms: _539  and  _540
REMARK  214  A    between atoms: _539  and  _542
REMARK  215  A    between atoms: _542  and  _543
REMARK                            x       y       z     vdW  Elec       q    Type
REMARK                         _______ _______ _______ _____ _____    ______ ____
ROOT
ATOM      1  O   HOH     1     -26.289   4.494   5.489  0.00  0.00    +0.000 OA
ENDROOT
TORSDOF 0
