REMARK  Name = ../refined-set-2016/1q91/1q91_pocket.pdb
REMARK  174 active torsions:
REMARK  status: ('A' for Active; 'I' for Inactive)
REMARK    1  A    between atoms: _1  and  _3
REMARK    2  A    between atoms: _3  and  _4
REMARK    3  A    between atoms: _3  and  _6
REMARK    4  A    between atoms: _6  and  _7
REMARK    5  A    between atoms: _10  and  _12
REMARK    6  A    between atoms: _12  and  _13
REMARK    7  A    between atoms: _12  and  _15
REMARK    8  A    between atoms: _15  and  _16
REMARK    9  A    between atoms: _16  and  _17
REMARK   10  A    between atoms: _19  and  _21
REMARK   11  A    between atoms: _21  and  _22
REMARK   12  A    between atoms: _21  and  _24
REMARK   13  A    between atoms: _22  and  _23
REMARK   14  A    between atoms: _22  and  _28
REMARK   15  A    between atoms: _23  and  MG_421
REMARK   16  A    between atoms: _24  and  _25
REMARK   17  A    between atoms: _28  and  _30
REMARK   18  A    between atoms: _30  and  _31
REMARK   19  A    between atoms: _33  and  _35
REMARK   20  A    between atoms: _35  and  _36
REMARK   21  A    between atoms: _35  and  _38
REMARK   22  A    between atoms: _38  and  _39
REMARK   23  A    between atoms: _45  and  _47
REMARK   24  A    between atoms: _47  and  _48
REMARK   25  A    between atoms: _47  and  _50
REMARK   26  A    between atoms: _50  and  _51
REMARK   27  A    between atoms: _51  and  _52
REMARK   28  A    between atoms: _55  and  _57
REMARK   29  A    between atoms: _57  and  _58
REMARK   30  A    between atoms: _57  and  _60
REMARK   31  A    between atoms: _60  and  _61
REMARK   32  A    between atoms: _67  and  _69
REMARK   33  A    between atoms: _69  and  _70
REMARK   34  A    between atoms: _69  and  _72
REMARK   35  A    between atoms: _72  and  _73
REMARK   36  A    between atoms: _73  and  _74
REMARK   37  A    between atoms: _74  and  _75
REMARK   38  A    between atoms: _84  and  _86
REMARK   39  A    between atoms: _86  and  _87
REMARK   40  A    between atoms: _89  and  _91
REMARK   41  A    between atoms: _91  and  _92
REMARK   42  A    between atoms: _91  and  _94
REMARK   43  A    between atoms: _94  and  _95
REMARK   44  A    between atoms: _101  and  _103
REMARK   45  A    between atoms: _103  and  _104
REMARK   46  A    between atoms: _103  and  _106
REMARK   47  A    between atoms: _106  and  _107
REMARK   48  A    between atoms: _117  and  _119
REMARK   49  A    between atoms: _119  and  _120
REMARK   50  A    between atoms: _119  and  _122
REMARK   51  A    between atoms: _125  and  _127
REMARK   52  A    between atoms: _127  and  _128
REMARK   53  A    between atoms: _127  and  _130
REMARK   54  A    between atoms: _130  and  _131
REMARK   55  A    between atoms: _133  and  _135
REMARK   56  A    between atoms: _135  and  _136
REMARK   57  A    between atoms: _135  and  _138
REMARK   58  A    between atoms: _138  and  _139
REMARK   59  A    between atoms: _139  and  _140
REMARK   60  A    between atoms: _143  and  _145
REMARK   61  A    between atoms: _145  and  _146
REMARK   62  A    between atoms: _145  and  _148
REMARK   63  A    between atoms: _148  and  _149
REMARK   64  A    between atoms: _149  and  _150
REMARK   65  A    between atoms: _155  and  _157
REMARK   66  A    between atoms: _157  and  _158
REMARK   67  A    between atoms: _157  and  _160
REMARK   68  A    between atoms: _160  and  _161
REMARK   69  A    between atoms: _166  and  _167
REMARK   70  A    between atoms: _169  and  _171
REMARK   71  A    between atoms: _171  and  _172
REMARK   72  A    between atoms: _175  and  _177
REMARK   73  A    between atoms: _177  and  _178
REMARK   74  A    between atoms: _177  and  _180
REMARK   75  A    between atoms: _180  and  _181
REMARK   76  A    between atoms: _184  and  _186
REMARK   77  A    between atoms: _186  and  _187
REMARK   78  A    between atoms: _186  and  _189
REMARK   79  A    between atoms: _189  and  _190
REMARK   80  A    between atoms: _200  and  _202
REMARK   81  A    between atoms: _202  and  _203
REMARK   82  A    between atoms: _202  and  _205
REMARK   83  A    between atoms: _205  and  _206
REMARK   84  A    between atoms: _206  and  _207
REMARK   85  A    between atoms: _210  and  _212
REMARK   86  A    between atoms: _212  and  _213
REMARK   87  A    between atoms: _212  and  _215
REMARK   88  A    between atoms: _215  and  _216
REMARK   89  A    between atoms: _222  and  _224
REMARK   90  A    between atoms: _224  and  _225
REMARK   91  A    between atoms: _224  and  _227
REMARK   92  A    between atoms: _227  and  _228
REMARK   93  A    between atoms: _234  and  _236
REMARK   94  A    between atoms: _236  and  _237
REMARK   95  A    between atoms: _236  and  _239
REMARK   96  A    between atoms: _239  and  _240
REMARK   97  A    between atoms: _243  and  _245
REMARK   98  A    between atoms: _245  and  _246
REMARK   99  A    between atoms: _245  and  _248
REMARK  100  A    between atoms: _248  and  _249
REMARK  101  A    between atoms: _252  and  _253
REMARK  102  A    between atoms: _258  and  _260
REMARK  103  A    between atoms: _260  and  _261
REMARK  104  A    between atoms: _260  and  _263
REMARK  105  A    between atoms: _263  and  _264
REMARK  106  A    between atoms: _267  and  _269
REMARK  107  A    between atoms: _269  and  _270
REMARK  108  A    between atoms: _269  and  _272
REMARK  109  A    between atoms: _272  and  _273
REMARK  110  A    between atoms: _273  and  _274
REMARK  111  A    between atoms: _274  and  _275
REMARK  112  A    between atoms: _275  and  _276
REMARK  113  A    between atoms: _280  and  _282
REMARK  114  A    between atoms: _282  and  _283
REMARK  115  A    between atoms: _282  and  _285
REMARK  116  A    between atoms: _285  and  _286
REMARK  117  A    between atoms: _286  and  _287
REMARK  118  A    between atoms: _289  and  _291
REMARK  119  A    between atoms: _291  and  _292
REMARK  120  A    between atoms: _291  and  _294
REMARK  121  A    between atoms: _294  and  _295
REMARK  122  A    between atoms: _301  and  _303
REMARK  123  A    between atoms: _303  and  _304
REMARK  124  A    between atoms: _303  and  _306
REMARK  125  A    between atoms: _308  and  _310
REMARK  126  A    between atoms: _310  and  _311
REMARK  127  A    between atoms: _310  and  _313
REMARK  128  A    between atoms: _313  and  _314
REMARK  129  A    between atoms: _314  and  _315
REMARK  130  A    between atoms: _315  and  _316
REMARK  131  A    between atoms: _316  and  _317
REMARK  132  A    between atoms: _321  and  _323
REMARK  133  A    between atoms: _323  and  _324
REMARK  134  A    between atoms: _323  and  _326
REMARK  135  A    between atoms: _326  and  _327
REMARK  136  A    between atoms: _330  and  _332
REMARK  137  A    between atoms: _332  and  _333
REMARK  138  A    between atoms: _332  and  _335
REMARK  139  A    between atoms: _335  and  _336
REMARK  140  A    between atoms: _336  and  _337
REMARK  141  A    between atoms: _337  and  _338
REMARK  142  A    between atoms: _347  and  _349
REMARK  143  A    between atoms: _349  and  _350
REMARK  144  A    between atoms: _349  and  _352
REMARK  145  A    between atoms: _352  and  _353
REMARK  146  A    between atoms: _356  and  _358
REMARK  147  A    between atoms: _358  and  _359
REMARK  148  A    between atoms: _358  and  _361
REMARK  149  A    between atoms: _361  and  _362
REMARK  150  A    between atoms: _362  and  _363
REMARK  151  A    between atoms: _363  and  _364
REMARK  152  A    between atoms: _364  and  _365
REMARK  153  A    between atoms: _369  and  _371
REMARK  154  A    between atoms: _371  and  _372
REMARK  155  A    between atoms: _371  and  _374
REMARK  156  A    between atoms: _374  and  _375
REMARK  157  A    between atoms: _378  and  _380
REMARK  158  A    between atoms: _380  and  _381
REMARK  159  A    between atoms: _380  and  _383
REMARK  160  A    between atoms: _383  and  _384
REMARK  161  A    between atoms: _384  and  _385
REMARK  162  A    between atoms: _385  and  MG_421
REMARK  163  A    between atoms: _387  and  _389
REMARK  164  A    between atoms: _389  and  _390
REMARK  165  A    between atoms: _389  and  _392
REMARK  166  A    between atoms: _392  and  _393
REMARK  167  A    between atoms: _393  and  _394
REMARK  168  A    between atoms: _394  and  _395
REMARK  169  A    between atoms: _404  and  _406
REMARK  170  A    between atoms: _406  and  _407
REMARK  171  A    between atoms: _410  and  _412
REMARK  172  A    between atoms: _412  and  _413
REMARK  173  A    between atoms: _412  and  _415
REMARK  174  A    between atoms: _415  and  _416
REMARK                            x       y       z     vdW  Elec       q    Type
REMARK                         _______ _______ _______ _____ _____    ______ ____
ROOT
ATOM      1  O   UNK A   2      15.666  36.347  33.050  0.00  0.00    +0.000 OA
ENDROOT
BRANCH   1   2
ATOM      2  C   UNK A   2      14.773  35.537  33.340  0.00  0.00    +0.000 C 
ATOM      3  O   UNK A   2      13.581  35.669  32.988  0.00  0.00    +0.000 OA
BRANCH   2   4
ATOM      4  C   UNK A   2      15.181  34.344  34.165  0.00  0.00    +0.000 C 
BRANCH   4   5
ATOM      5  C   UNK A   2      16.417  33.637  33.601  0.00  0.00    +0.000 C 
BRANCH   5   6
ATOM      6  C   UNK A   2      16.077  33.091  32.216  0.00  0.00    +0.000 C 
ATOM      7  O   UNK A   2      15.171  32.268  32.082  0.00  0.00    +0.000 OA
ATOM      8  N   ARG A   3      16.780  33.546  31.182  0.00  0.00    +0.000 N 
ATOM      9  H   ARG A   3      17.525  34.256  31.329  0.00  0.00    +0.000 HD
BRANCH   8  10
ATOM     10  CA  ARG A   3      16.501  33.044  29.840  0.00  0.00    +0.000 C 
BRANCH  10  11
ATOM     11  C   ARG A   3      17.243  31.725  29.654  0.00  0.00    +0.000 C 
ATOM     12  O   ARG A   3      18.446  31.658  29.859  0.00  0.00    +0.000 OA
ENDBRANCH  10  11
BRANCH  10  13
ATOM     13  CB  ARG A   3      16.952  34.046  28.775  0.00  0.00    +0.000 C 
BRANCH  13  14
ATOM     14  CG  ARG A   3      16.621  33.578  27.370  0.00  0.00    +0.000 C 
BRANCH  14  15
ATOM     15  CD  ARG A   3      16.821  34.647  26.314  0.00  0.00    +0.000 C 
BRANCH  15  16
ATOM     16  NE  ARG A   3      16.677  34.052  24.987  0.00  0.00    +0.330 N 
ATOM     17  HE  ARG A   3      16.559  33.020  24.932  0.00  0.00    +0.000 HD
ATOM     18  CZ  ARG A   3      16.686  34.731  23.846  0.00  0.00    +0.000 C 
ATOM     19  NH2 ARG A   3      16.827  36.049  23.852  0.00  0.00    +0.330 N 
ATOM     20 HH21 ARG A   3      16.931  36.557  24.754  0.00  0.00    +0.000 HD
ATOM     21 HH22 ARG A   3      16.833  36.575  22.955  0.00  0.00    +0.000 HD
ATOM     22  NH1 ARG A   3      16.573  34.081  22.695  0.00  0.00    +0.330 N 
ATOM     23 HH11 ARG A   3      16.478  33.045  22.690  0.00  0.00    +0.000 HD
ATOM     24 HH12 ARG A   3      16.579  34.607  21.798  0.00  0.00    +0.000 HD
ENDBRANCH  15  16
ENDBRANCH  14  15
ENDBRANCH  13  14
ENDBRANCH  10  13
ENDBRANCH   8  10
ENDBRANCH   5   6
BRANCH   5  25
ATOM     25  N   UNK A   2      17.588  34.515  33.666  0.00  0.00    +0.000 N 
ATOM     26  C   ASP A   1      18.819  34.017  33.767  0.00  0.00    +0.000 C 
ATOM     27  O   ASP A   1      19.041  32.804  33.783  0.00  0.00    +0.000 OA
ATOM     28  H   UNK A   2      17.456  35.546  33.633  0.00  0.00    +0.000 HD
BRANCH  26  29
ATOM     29  CA  ASP A   1      19.978  35.018  33.850  0.00  0.00    +0.000 C 
BRANCH  29  30
ATOM     30  N   ASP A   1      21.003  34.546  34.772  0.00  0.00    +0.000 NA
ATOM     31  H   ASP A   1      21.163  33.523  34.873  0.00  0.00    +0.000 HD
ENDBRANCH  29  30
BRANCH  29  32
ATOM     32  CB  ASP A   1      20.677  35.172  32.489  0.00  0.00    +0.000 C 
BRANCH  32  33
ATOM     33  CG  ASP A   1      19.871  35.944  31.477  0.00  0.00    +0.000 C 
ATOM     34  OD2 ASP A   1      18.708  35.580  31.228  0.00  0.00    +0.000 OA
ATOM     35  OD1 ASP A   1      20.431  36.913  30.910  0.00  0.00    +0.000 OA
ENDBRANCH  32  33
ENDBRANCH  29  32
ENDBRANCH  26  29
ENDBRANCH   5  25
ENDBRANCH   4   5
ENDBRANCH   2   4
ENDBRANCH   1   2
BRANCH   1  36
ATOM     36 MG   UNK A   2      15.928  38.191  32.030  0.00  0.00    +0.000 Mg
BRANCH  36  37
ATOM     37  O   UNK A   2      15.132  39.212  33.708  0.00  0.00    +0.000 OA
BRANCH  37  38
ATOM     38  C   UNK A   2      14.386  40.052  34.187  0.00  0.00    +0.000 C 
BRANCH  38  39
ATOM     39  N   UNK A   2      13.494  39.762  35.127  0.00  0.00    +0.000 NA
ATOM     40  H   UNK A   2      12.900  40.516  35.528  0.00  0.00    +0.000 HD
BRANCH  39  41
ATOM     41  C   UNK A   2      13.344  38.393  35.599  0.00  0.00    +0.000 C 
BRANCH  41  42
ATOM     42  C   UNK A   2      14.347  37.951  36.654  0.00  0.00    +0.000 C 
ATOM     43  O   UNK A   2      14.266  36.826  37.154  0.00  0.00    +0.000 OA
ENDBRANCH  41  42
ENDBRANCH  39  41
ENDBRANCH  38  39
BRANCH  38  44
ATOM     44  C   UNK A   2      14.469  41.507  33.736  0.00  0.00    +0.000 C 
BRANCH  44  47
ATOM     45  C   UNK A   2      16.494  42.075  34.928  0.00  0.00    +0.000 C 
ATOM     46  O   UNK A   2      15.975  41.719  35.982  0.00  0.00    +0.000 OA
ATOM     47  N   UNK A   2      15.844  42.005  33.771  0.00  0.00    +0.000 N 
ATOM     48  H   UNK A   2      16.312  42.304  32.892  0.00  0.00    +0.000 HD
BRANCH  45  49
ATOM     49  C   UNK A   2      17.929  42.603  34.912  0.00  0.00    +0.000 C 
BRANCH  49  52
ATOM     50  C   UNK A   2      19.608  40.869  35.102  0.00  0.00    +0.000 C 
ATOM     51  O   UNK A   2      19.534  40.901  36.330  0.00  0.00    +0.000 OA
ATOM     52  N   UNK A   2      18.869  41.656  34.326  0.00  0.00    +0.000 N 
ATOM     53  H   UNK A   2      18.963  41.595  33.292  0.00  0.00    +0.000 HD
BRANCH  50  54
ATOM     54  C   UNK A   2      20.580  39.913  34.405  0.00  0.00    +0.000 C 
BRANCH  54  55
ATOM     55  N   UNK A   2      21.648  39.534  35.311  0.00  0.00    +0.000 NA
ATOM     56  H   UNK A   2      21.703  38.544  35.626  0.00  0.00    +0.000 HD
ENDBRANCH  54  55
BRANCH  54  57
ATOM     57  C   UNK A   2      19.885  38.631  33.957  0.00  0.00    +0.000 C 
BRANCH  57  58
ATOM     58  C   UNK A   2      18.780  38.871  32.977  0.00  0.00    +0.000 C 
ATOM     59  O   UNK A   2      17.772  38.153  33.087  0.00  0.00    +0.000 OA
ATOM     60  O   UNK A   2      18.922  39.743  32.095  0.00  0.00    +0.000 OA
ENDBRANCH  57  58
ENDBRANCH  54  57
ENDBRANCH  50  54
ENDBRANCH  49  52
BRANCH  49  61
ATOM     61  C   UNK A   2      18.007  43.936  34.164  0.00  0.00    +0.000 C 
BRANCH  61  62
ATOM     62  C   UNK A   2      17.386  45.095  34.895  0.00  0.00    +0.000 C 
BRANCH  62  63
ATOM     63  S   UNK A   2      17.970  46.664  34.198  0.00  0.00    +0.000 S 
ATOM     64  C   UNK A   2      16.984  47.817  35.129  0.00  0.00    +0.000 C 
ENDBRANCH  62  63
ENDBRANCH  61  62
ENDBRANCH  49  61
ENDBRANCH  45  49
ENDBRANCH  44  47
BRANCH  44  65
ATOM     65  C   UNK A   2      13.889  41.640  32.323  0.00  0.00    +0.000 C 
BRANCH  65  66
ATOM     66  C   UNK A   2      13.738  43.081  31.898  0.00  0.00    +0.000 C 
ATOM     67  O   UNK A   2      13.082  43.840  32.639  0.00  0.00    +0.000 OA
ATOM     68  O   UNK A   2      14.270  43.452  30.828  0.00  0.00    +0.000 OA
ENDBRANCH  65  66
ENDBRANCH  44  65
ENDBRANCH  38  44
ENDBRANCH  37  38
ENDBRANCH  36  37
ENDBRANCH   1  36
TORSDOF 34
REMARK  Name = ../refined-set-2016/1q91/1q91_pocket.pdb
REMARK  174 active torsions:
REMARK  status: ('A' for Active; 'I' for Inactive)
REMARK    1  A    between atoms: _1  and  _3
REMARK    2  A    between atoms: _3  and  _4
REMARK    3  A    between atoms: _3  and  _6
REMARK    4  A    between atoms: _6  and  _7
REMARK    5  A    between atoms: _10  and  _12
REMARK    6  A    between atoms: _12  and  _13
REMARK    7  A    between atoms: _12  and  _15
REMARK    8  A    between atoms: _15  and  _16
REMARK    9  A    between atoms: _16  and  _17
REMARK   10  A    between atoms: _19  and  _21
REMARK   11  A    between atoms: _21  and  _22
REMARK   12  A    between atoms: _21  and  _24
REMARK   13  A    between atoms: _22  and  _23
REMARK   14  A    between atoms: _22  and  _28
REMARK   15  A    between atoms: _23  and  MG_421
REMARK   16  A    between atoms: _24  and  _25
REMARK   17  A    between atoms: _28  and  _30
REMARK   18  A    between atoms: _30  and  _31
REMARK   19  A    between atoms: _33  and  _35
REMARK   20  A    between atoms: _35  and  _36
REMARK   21  A    between atoms: _35  and  _38
REMARK   22  A    between atoms: _38  and  _39
REMARK   23  A    between atoms: _45  and  _47
REMARK   24  A    between atoms: _47  and  _48
REMARK   25  A    between atoms: _47  and  _50
REMARK   26  A    between atoms: _50  and  _51
REMARK   27  A    between atoms: _51  and  _52
REMARK   28  A    between atoms: _55  and  _57
REMARK   29  A    between atoms: _57  and  _58
REMARK   30  A    between atoms: _57  and  _60
REMARK   31  A    between atoms: _60  and  _61
REMARK   32  A    between atoms: _67  and  _69
REMARK   33  A    between atoms: _69  and  _70
REMARK   34  A    between atoms: _69  and  _72
REMARK   35  A    between atoms: _72  and  _73
REMARK   36  A    between atoms: _73  and  _74
REMARK   37  A    between atoms: _74  and  _75
REMARK   38  A    between atoms: _84  and  _86
REMARK   39  A    between atoms: _86  and  _87
REMARK   40  A    between atoms: _89  and  _91
REMARK   41  A    between atoms: _91  and  _92
REMARK   42  A    between atoms: _91  and  _94
REMARK   43  A    between atoms: _94  and  _95
REMARK   44  A    between atoms: _101  and  _103
REMARK   45  A    between atoms: _103  and  _104
REMARK   46  A    between atoms: _103  and  _106
REMARK   47  A    between atoms: _106  and  _107
REMARK   48  A    between atoms: _117  and  _119
REMARK   49  A    between atoms: _119  and  _120
REMARK   50  A    between atoms: _119  and  _122
REMARK   51  A    between atoms: _125  and  _127
REMARK   52  A    between atoms: _127  and  _128
REMARK   53  A    between atoms: _127  and  _130
REMARK   54  A    between atoms: _130  and  _131
REMARK   55  A    between atoms: _133  and  _135
REMARK   56  A    between atoms: _135  and  _136
REMARK   57  A    between atoms: _135  and  _138
REMARK   58  A    between atoms: _138  and  _139
REMARK   59  A    between atoms: _139  and  _140
REMARK   60  A    between atoms: _143  and  _145
REMARK   61  A    between atoms: _145  and  _146
REMARK   62  A    between atoms: _145  and  _148
REMARK   63  A    between atoms: _148  and  _149
REMARK   64  A    between atoms: _149  and  _150
REMARK   65  A    between atoms: _155  and  _157
REMARK   66  A    between atoms: _157  and  _158
REMARK   67  A    between atoms: _157  and  _160
REMARK   68  A    between atoms: _160  and  _161
REMARK   69  A    between atoms: _166  and  _167
REMARK   70  A    between atoms: _169  and  _171
REMARK   71  A    between atoms: _171  and  _172
REMARK   72  A    between atoms: _175  and  _177
REMARK   73  A    between atoms: _177  and  _178
REMARK   74  A    between atoms: _177  and  _180
REMARK   75  A    between atoms: _180  and  _181
REMARK   76  A    between atoms: _184  and  _186
REMARK   77  A    between atoms: _186  and  _187
REMARK   78  A    between atoms: _186  and  _189
REMARK   79  A    between atoms: _189  and  _190
REMARK   80  A    between atoms: _200  and  _202
REMARK   81  A    between atoms: _202  and  _203
REMARK   82  A    between atoms: _202  and  _205
REMARK   83  A    between atoms: _205  and  _206
REMARK   84  A    between atoms: _206  and  _207
REMARK   85  A    between atoms: _210  and  _212
REMARK   86  A    between atoms: _212  and  _213
REMARK   87  A    between atoms: _212  and  _215
REMARK   88  A    between atoms: _215  and  _216
REMARK   89  A    between atoms: _222  and  _224
REMARK   90  A    between atoms: _224  and  _225
REMARK   91  A    between atoms: _224  and  _227
REMARK   92  A    between atoms: _227  and  _228
REMARK   93  A    between atoms: _234  and  _236
REMARK   94  A    between atoms: _236  and  _237
REMARK   95  A    between atoms: _236  and  _239
REMARK   96  A    between atoms: _239  and  _240
REMARK   97  A    between atoms: _243  and  _245
REMARK   98  A    between atoms: _245  and  _246
REMARK   99  A    between atoms: _245  and  _248
REMARK  100  A    between atoms: _248  and  _249
REMARK  101  A    between atoms: _252  and  _253
REMARK  102  A    between atoms: _258  and  _260
REMARK  103  A    between atoms: _260  and  _261
REMARK  104  A    between atoms: _260  and  _263
REMARK  105  A    between atoms: _263  and  _264
REMARK  106  A    between atoms: _267  and  _269
REMARK  107  A    between atoms: _269  and  _270
REMARK  108  A    between atoms: _269  and  _272
REMARK  109  A    between atoms: _272  and  _273
REMARK  110  A    between atoms: _273  and  _274
REMARK  111  A    between atoms: _274  and  _275
REMARK  112  A    between atoms: _275  and  _276
REMARK  113  A    between atoms: _280  and  _282
REMARK  114  A    between atoms: _282  and  _283
REMARK  115  A    between atoms: _282  and  _285
REMARK  116  A    between atoms: _285  and  _286
REMARK  117  A    between atoms: _286  and  _287
REMARK  118  A    between atoms: _289  and  _291
REMARK  119  A    between atoms: _291  and  _292
REMARK  120  A    between atoms: _291  and  _294
REMARK  121  A    between atoms: _294  and  _295
REMARK  122  A    between atoms: _301  and  _303
REMARK  123  A    between atoms: _303  and  _304
REMARK  124  A    between atoms: _303  and  _306
REMARK  125  A    between atoms: _308  and  _310
REMARK  126  A    between atoms: _310  and  _311
REMARK  127  A    between atoms: _310  and  _313
REMARK  128  A    between atoms: _313  and  _314
REMARK  129  A    between atoms: _314  and  _315
REMARK  130  A    between atoms: _315  and  _316
REMARK  131  A    between atoms: _316  and  _317
REMARK  132  A    between atoms: _321  and  _323
REMARK  133  A    between atoms: _323  and  _324
REMARK  134  A    between atoms: _323  and  _326
REMARK  135  A    between atoms: _326  and  _327
REMARK  136  A    between atoms: _330  and  _332
REMARK  137  A    between atoms: _332  and  _333
REMARK  138  A    between atoms: _332  and  _335
REMARK  139  A    between atoms: _335  and  _336
REMARK  140  A    between atoms: _336  and  _337
REMARK  141  A    between atoms: _337  and  _338
REMARK  142  A    between atoms: _347  and  _349
REMARK  143  A    between atoms: _349  and  _350
REMARK  144  A    between atoms: _349  and  _352
REMARK  145  A    between atoms: _352  and  _353
REMARK  146  A    between atoms: _356  and  _358
REMARK  147  A    between atoms: _358  and  _359
REMARK  148  A    between atoms: _358  and  _361
REMARK  149  A    between atoms: _361  and  _362
REMARK  150  A    between atoms: _362  and  _363
REMARK  151  A    between atoms: _363  and  _364
REMARK  152  A    between atoms: _364  and  _365
REMARK  153  A    between atoms: _369  and  _371
REMARK  154  A    between atoms: _371  and  _372
REMARK  155  A    between atoms: _371  and  _374
REMARK  156  A    between atoms: _374  and  _375
REMARK  157  A    between atoms: _378  and  _380
REMARK  158  A    between atoms: _380  and  _381
REMARK  159  A    between atoms: _380  and  _383
REMARK  160  A    between atoms: _383  and  _384
REMARK  161  A    between atoms: _384  and  _385
REMARK  162  A    between atoms: _385  and  MG_421
REMARK  163  A    between atoms: _387  and  _389
REMARK  164  A    between atoms: _389  and  _390
REMARK  165  A    between atoms: _389  and  _392
REMARK  166  A    between atoms: _392  and  _393
REMARK  167  A    between atoms: _393  and  _394
REMARK  168  A    between atoms: _394  and  _395
REMARK  169  A    between atoms: _404  and  _406
REMARK  170  A    between atoms: _406  and  _407
REMARK  171  A    between atoms: _410  and  _412
REMARK  172  A    between atoms: _412  and  _413
REMARK  173  A    between atoms: _412  and  _415
REMARK  174  A    between atoms: _415  and  _416
REMARK                            x       y       z     vdW  Elec       q    Type
REMARK                         _______ _______ _______ _____ _____    ______ ____
ROOT
ATOM      1  C   PHE A   1       7.662  41.061  34.192  0.00  0.00    +0.239 C 
ATOM      2  N   GLU A   2       7.619  39.801  34.622  0.00  0.00    -0.298 N 
ATOM      3  H   GLU A   2       8.468  39.371  35.042  0.00  0.00    +0.150 HD
ATOM      4  O   PHE A   1       6.683  41.625  33.712  0.00  0.00    -0.274 OA
ENDROOT
BRANCH   1   5
ATOM      5  CA  PHE A   1       8.995  41.808  34.330  0.00  0.00    +0.149 C 
BRANCH   5   6
ATOM      6  N   PHE A   1       9.594  41.619  35.643  0.00  0.00    -0.238 NA
ATOM      7  H   PHE A   1      10.513  41.135  35.699  0.00  0.00    +0.142 HD
ENDBRANCH   5   6
BRANCH   5   8
ATOM      8  CB  PHE A   1       9.997  41.339  33.263  0.00  0.00    +0.053 C 
BRANCH   8   9
ATOM      9  CG  PHE A   1       9.522  41.511  31.845  0.00  0.00    -0.020 A 
ATOM     10  CD2 PHE A   1       8.609  40.622  31.284  0.00  0.00    -0.004 A 
ATOM     11  CE2 PHE A   1       8.183  40.773  29.960  0.00  0.00    -0.000 A 
ATOM     12  CZ  PHE A   1       8.673  41.822  29.188  0.00  0.00    -0.000 A 
ATOM     13  CE1 PHE A   1       9.585  42.714  29.739  0.00  0.00    -0.000 A 
ATOM     14  CD1 PHE A   1      10.004  42.556  31.063  0.00  0.00    -0.004 A 
ENDBRANCH   8   9
ENDBRANCH   5   8
ENDBRANCH   1   5
BRANCH   2  15
ATOM     15  CA  GLU A   2       6.387  39.016  34.509  0.00  0.00    +0.137 C 
BRANCH  15  16
ATOM     16  C   GLU A   2       5.238  39.608  35.322  0.00  0.00    +0.227 C 
ATOM     17  O   GLU A   2       4.117  39.740  34.824  0.00  0.00    -0.286 OA
ENDBRANCH  15  16
BRANCH  15  18
ATOM     18  CB  GLU A   2       6.632  37.573  34.960  0.00  0.00    +0.039 C 
BRANCH  18  19
ATOM     19  CG  GLU A   2       7.580  36.770  34.076  0.00  0.00    +0.116 C 
BRANCH  19  20
ATOM     20  CD  GLU A   2       6.955  36.326  32.762  0.00  0.00    +0.365 C 
ATOM     21  OE2 GLU A   2       5.713  36.330  32.649  0.00  0.00    -0.246 OA
ATOM     22  OE1 GLU A   2       7.710  35.951  31.842  0.00  0.00    -0.246 OA
ENDBRANCH  19  20
ENDBRANCH  18  19
ENDBRANCH  15  18
ENDBRANCH   2  15
TORSDOF 9
REMARK  Name = ../refined-set-2016/1q91/1q91_pocket.pdb
REMARK  174 active torsions:
REMARK  status: ('A' for Active; 'I' for Inactive)
REMARK    1  A    between atoms: _1  and  _3
REMARK    2  A    between atoms: _3  and  _4
REMARK    3  A    between atoms: _3  and  _6
REMARK    4  A    between atoms: _6  and  _7
REMARK    5  A    between atoms: _10  and  _12
REMARK    6  A    between atoms: _12  and  _13
REMARK    7  A    between atoms: _12  and  _15
REMARK    8  A    between atoms: _15  and  _16
REMARK    9  A    between atoms: _16  and  _17
REMARK   10  A    between atoms: _19  and  _21
REMARK   11  A    between atoms: _21  and  _22
REMARK   12  A    between atoms: _21  and  _24
REMARK   13  A    between atoms: _22  and  _23
REMARK   14  A    between atoms: _22  and  _28
REMARK   15  A    between atoms: _23  and  MG_421
REMARK   16  A    between atoms: _24  and  _25
REMARK   17  A    between atoms: _28  and  _30
REMARK   18  A    between atoms: _30  and  _31
REMARK   19  A    between atoms: _33  and  _35
REMARK   20  A    between atoms: _35  and  _36
REMARK   21  A    between atoms: _35  and  _38
REMARK   22  A    between atoms: _38  and  _39
REMARK   23  A    between atoms: _45  and  _47
REMARK   24  A    between atoms: _47  and  _48
REMARK   25  A    between atoms: _47  and  _50
REMARK   26  A    between atoms: _50  and  _51
REMARK   27  A    between atoms: _51  and  _52
REMARK   28  A    between atoms: _55  and  _57
REMARK   29  A    between atoms: _57  and  _58
REMARK   30  A    between atoms: _57  and  _60
REMARK   31  A    between atoms: _60  and  _61
REMARK   32  A    between atoms: _67  and  _69
REMARK   33  A    between atoms: _69  and  _70
REMARK   34  A    between atoms: _69  and  _72
REMARK   35  A    between atoms: _72  and  _73
REMARK   36  A    between atoms: _73  and  _74
REMARK   37  A    between atoms: _74  and  _75
REMARK   38  A    between atoms: _84  and  _86
REMARK   39  A    between atoms: _86  and  _87
REMARK   40  A    between atoms: _89  and  _91
REMARK   41  A    between atoms: _91  and  _92
REMARK   42  A    between atoms: _91  and  _94
REMARK   43  A    between atoms: _94  and  _95
REMARK   44  A    between atoms: _101  and  _103
REMARK   45  A    between atoms: _103  and  _104
REMARK   46  A    between atoms: _103  and  _106
REMARK   47  A    between atoms: _106  and  _107
REMARK   48  A    between atoms: _117  and  _119
REMARK   49  A    between atoms: _119  and  _120
REMARK   50  A    between atoms: _119  and  _122
REMARK   51  A    between atoms: _125  and  _127
REMARK   52  A    between atoms: _127  and  _128
REMARK   53  A    between atoms: _127  and  _130
REMARK   54  A    between atoms: _130  and  _131
REMARK   55  A    between atoms: _133  and  _135
REMARK   56  A    between atoms: _135  and  _136
REMARK   57  A    between atoms: _135  and  _138
REMARK   58  A    between atoms: _138  and  _139
REMARK   59  A    between atoms: _139  and  _140
REMARK   60  A    between atoms: _143  and  _145
REMARK   61  A    between atoms: _145  and  _146
REMARK   62  A    between atoms: _145  and  _148
REMARK   63  A    between atoms: _148  and  _149
REMARK   64  A    between atoms: _149  and  _150
REMARK   65  A    between atoms: _155  and  _157
REMARK   66  A    between atoms: _157  and  _158
REMARK   67  A    between atoms: _157  and  _160
REMARK   68  A    between atoms: _160  and  _161
REMARK   69  A    between atoms: _166  and  _167
REMARK   70  A    between atoms: _169  and  _171
REMARK   71  A    between atoms: _171  and  _172
REMARK   72  A    between atoms: _175  and  _177
REMARK   73  A    between atoms: _177  and  _178
REMARK   74  A    between atoms: _177  and  _180
REMARK   75  A    between atoms: _180  and  _181
REMARK   76  A    between atoms: _184  and  _186
REMARK   77  A    between atoms: _186  and  _187
REMARK   78  A    between atoms: _186  and  _189
REMARK   79  A    between atoms: _189  and  _190
REMARK   80  A    between atoms: _200  and  _202
REMARK   81  A    between atoms: _202  and  _203
REMARK   82  A    between atoms: _202  and  _205
REMARK   83  A    between atoms: _205  and  _206
REMARK   84  A    between atoms: _206  and  _207
REMARK   85  A    between atoms: _210  and  _212
REMARK   86  A    between atoms: _212  and  _213
REMARK   87  A    between atoms: _212  and  _215
REMARK   88  A    between atoms: _215  and  _216
REMARK   89  A    between atoms: _222  and  _224
REMARK   90  A    between atoms: _224  and  _225
REMARK   91  A    between atoms: _224  and  _227
REMARK   92  A    between atoms: _227  and  _228
REMARK   93  A    between atoms: _234  and  _236
REMARK   94  A    between atoms: _236  and  _237
REMARK   95  A    between atoms: _236  and  _239
REMARK   96  A    between atoms: _239  and  _240
REMARK   97  A    between atoms: _243  and  _245
REMARK   98  A    between atoms: _245  and  _246
REMARK   99  A    between atoms: _245  and  _248
REMARK  100  A    between atoms: _248  and  _249
REMARK  101  A    between atoms: _252  and  _253
REMARK  102  A    between atoms: _258  and  _260
REMARK  103  A    between atoms: _260  and  _261
REMARK  104  A    between atoms: _260  and  _263
REMARK  105  A    between atoms: _263  and  _264
REMARK  106  A    between atoms: _267  and  _269
REMARK  107  A    between atoms: _269  and  _270
REMARK  108  A    between atoms: _269  and  _272
REMARK  109  A    between atoms: _272  and  _273
REMARK  110  A    between atoms: _273  and  _274
REMARK  111  A    between atoms: _274  and  _275
REMARK  112  A    between atoms: _275  and  _276
REMARK  113  A    between atoms: _280  and  _282
REMARK  114  A    between atoms: _282  and  _283
REMARK  115  A    between atoms: _282  and  _285
REMARK  116  A    between atoms: _285  and  _286
REMARK  117  A    between atoms: _286  and  _287
REMARK  118  A    between atoms: _289  and  _291
REMARK  119  A    between atoms: _291  and  _292
REMARK  120  A    between atoms: _291  and  _294
REMARK  121  A    between atoms: _294  and  _295
REMARK  122  A    between atoms: _301  and  _303
REMARK  123  A    between atoms: _303  and  _304
REMARK  124  A    between atoms: _303  and  _306
REMARK  125  A    between atoms: _308  and  _310
REMARK  126  A    between atoms: _310  and  _311
REMARK  127  A    between atoms: _310  and  _313
REMARK  128  A    between atoms: _313  and  _314
REMARK  129  A    between atoms: _314  and  _315
REMARK  130  A    between atoms: _315  and  _316
REMARK  131  A    between atoms: _316  and  _317
REMARK  132  A    between atoms: _321  and  _323
REMARK  133  A    between atoms: _323  and  _324
REMARK  134  A    between atoms: _323  and  _326
REMARK  135  A    between atoms: _326  and  _327
REMARK  136  A    between atoms: _330  and  _332
REMARK  137  A    between atoms: _332  and  _333
REMARK  138  A    between atoms: _332  and  _335
REMARK  139  A    between atoms: _335  and  _336
REMARK  140  A    between atoms: _336  and  _337
REMARK  141  A    between atoms: _337  and  _338
REMARK  142  A    between atoms: _347  and  _349
REMARK  143  A    between atoms: _349  and  _350
REMARK  144  A    between atoms: _349  and  _352
REMARK  145  A    between atoms: _352  and  _353
REMARK  146  A    between atoms: _356  and  _358
REMARK  147  A    between atoms: _358  and  _359
REMARK  148  A    between atoms: _358  and  _361
REMARK  149  A    between atoms: _361  and  _362
REMARK  150  A    between atoms: _362  and  _363
REMARK  151  A    between atoms: _363  and  _364
REMARK  152  A    between atoms: _364  and  _365
REMARK  153  A    between atoms: _369  and  _371
REMARK  154  A    between atoms: _371  and  _372
REMARK  155  A    between atoms: _371  and  _374
REMARK  156  A    between atoms: _374  and  _375
REMARK  157  A    between atoms: _378  and  _380
REMARK  158  A    between atoms: _380  and  _381
REMARK  159  A    between atoms: _380  and  _383
REMARK  160  A    between atoms: _383  and  _384
REMARK  161  A    between atoms: _384  and  _385
REMARK  162  A    between atoms: _385  and  MG_421
REMARK  163  A    between atoms: _387  and  _389
REMARK  164  A    between atoms: _389  and  _390
REMARK  165  A    between atoms: _389  and  _392
REMARK  166  A    between atoms: _392  and  _393
REMARK  167  A    between atoms: _393  and  _394
REMARK  168  A    between atoms: _394  and  _395
REMARK  169  A    between atoms: _404  and  _406
REMARK  170  A    between atoms: _406  and  _407
REMARK  171  A    between atoms: _410  and  _412
REMARK  172  A    between atoms: _412  and  _413
REMARK  173  A    between atoms: _412  and  _415
REMARK  174  A    between atoms: _415  and  _416
REMARK                            x       y       z     vdW  Elec       q    Type
REMARK                         _______ _______ _______ _____ _____    ______ ____
ROOT
ATOM      1  CB  PHE A   1       4.025  41.756  31.784  0.00  0.00    +0.051 C 
ENDROOT
BRANCH   1   2
ATOM      2  CG  PHE A   1       3.153  41.391  30.619  0.00  0.00    -0.020 A 
ATOM      3  CD2 PHE A   1       2.296  40.292  30.692  0.00  0.00    -0.004 A 
ATOM      4  CE2 PHE A   1       1.415  40.004  29.648  0.00  0.00    -0.000 A 
ATOM      5  CZ  PHE A   1       1.390  40.819  28.518  0.00  0.00    -0.000 A 
ATOM      6  CE1 PHE A   1       2.248  41.917  28.437  0.00  0.00    -0.000 A 
ATOM      7  CD1 PHE A   1       3.122  42.194  29.485  0.00  0.00    -0.004 A 
ENDBRANCH   1   2
BRANCH   1   8
ATOM      8  CA  PHE A   1       3.430  42.865  32.651  0.00  0.00    +0.137 C 
BRANCH   8   9
ATOM      9  N   PHE A   1       4.181  43.038  33.882  0.00  0.00    -0.239 NA
ATOM     10  H   PHE A   1       5.003  42.430  34.072  0.00  0.00    +0.142 HD
ENDBRANCH   8   9
BRANCH   8  11
ATOM     11  C   PHE A   1       1.984  42.490  32.958  0.00  0.00    +0.224 C 
ATOM     12  O   PHE A   1       1.051  43.130  32.475  0.00  0.00    -0.287 OA
ENDBRANCH   8  11
ENDBRANCH   1   8
TORSDOF 4
REMARK  Name = ../refined-set-2016/1q91/1q91_pocket.pdb
REMARK  174 active torsions:
REMARK  status: ('A' for Active; 'I' for Inactive)
REMARK    1  A    between atoms: _1  and  _3
REMARK    2  A    between atoms: _3  and  _4
REMARK    3  A    between atoms: _3  and  _6
REMARK    4  A    between atoms: _6  and  _7
REMARK    5  A    between atoms: _10  and  _12
REMARK    6  A    between atoms: _12  and  _13
REMARK    7  A    between atoms: _12  and  _15
REMARK    8  A    between atoms: _15  and  _16
REMARK    9  A    between atoms: _16  and  _17
REMARK   10  A    between atoms: _19  and  _21
REMARK   11  A    between atoms: _21  and  _22
REMARK   12  A    between atoms: _21  and  _24
REMARK   13  A    between atoms: _22  and  _23
REMARK   14  A    between atoms: _22  and  _28
REMARK   15  A    between atoms: _23  and  MG_421
REMARK   16  A    between atoms: _24  and  _25
REMARK   17  A    between atoms: _28  and  _30
REMARK   18  A    between atoms: _30  and  _31
REMARK   19  A    between atoms: _33  and  _35
REMARK   20  A    between atoms: _35  and  _36
REMARK   21  A    between atoms: _35  and  _38
REMARK   22  A    between atoms: _38  and  _39
REMARK   23  A    between atoms: _45  and  _47
REMARK   24  A    between atoms: _47  and  _48
REMARK   25  A    between atoms: _47  and  _50
REMARK   26  A    between atoms: _50  and  _51
REMARK   27  A    between atoms: _51  and  _52
REMARK   28  A    between atoms: _55  and  _57
REMARK   29  A    between atoms: _57  and  _58
REMARK   30  A    between atoms: _57  and  _60
REMARK   31  A    between atoms: _60  and  _61
REMARK   32  A    between atoms: _67  and  _69
REMARK   33  A    between atoms: _69  and  _70
REMARK   34  A    between atoms: _69  and  _72
REMARK   35  A    between atoms: _72  and  _73
REMARK   36  A    between atoms: _73  and  _74
REMARK   37  A    between atoms: _74  and  _75
REMARK   38  A    between atoms: _84  and  _86
REMARK   39  A    between atoms: _86  and  _87
REMARK   40  A    between atoms: _89  and  _91
REMARK   41  A    between atoms: _91  and  _92
REMARK   42  A    between atoms: _91  and  _94
REMARK   43  A    between atoms: _94  and  _95
REMARK   44  A    between atoms: _101  and  _103
REMARK   45  A    between atoms: _103  and  _104
REMARK   46  A    between atoms: _103  and  _106
REMARK   47  A    between atoms: _106  and  _107
REMARK   48  A    between atoms: _117  and  _119
REMARK   49  A    between atoms: _119  and  _120
REMARK   50  A    between atoms: _119  and  _122
REMARK   51  A    between atoms: _125  and  _127
REMARK   52  A    between atoms: _127  and  _128
REMARK   53  A    between atoms: _127  and  _130
REMARK   54  A    between atoms: _130  and  _131
REMARK   55  A    between atoms: _133  and  _135
REMARK   56  A    between atoms: _135  and  _136
REMARK   57  A    between atoms: _135  and  _138
REMARK   58  A    between atoms: _138  and  _139
REMARK   59  A    between atoms: _139  and  _140
REMARK   60  A    between atoms: _143  and  _145
REMARK   61  A    between atoms: _145  and  _146
REMARK   62  A    between atoms: _145  and  _148
REMARK   63  A    between atoms: _148  and  _149
REMARK   64  A    between atoms: _149  and  _150
REMARK   65  A    between atoms: _155  and  _157
REMARK   66  A    between atoms: _157  and  _158
REMARK   67  A    between atoms: _157  and  _160
REMARK   68  A    between atoms: _160  and  _161
REMARK   69  A    between atoms: _166  and  _167
REMARK   70  A    between atoms: _169  and  _171
REMARK   71  A    between atoms: _171  and  _172
REMARK   72  A    between atoms: _175  and  _177
REMARK   73  A    between atoms: _177  and  _178
REMARK   74  A    between atoms: _177  and  _180
REMARK   75  A    between atoms: _180  and  _181
REMARK   76  A    between atoms: _184  and  _186
REMARK   77  A    between atoms: _186  and  _187
REMARK   78  A    between atoms: _186  and  _189
REMARK   79  A    between atoms: _189  and  _190
REMARK   80  A    between atoms: _200  and  _202
REMARK   81  A    between atoms: _202  and  _203
REMARK   82  A    between atoms: _202  and  _205
REMARK   83  A    between atoms: _205  and  _206
REMARK   84  A    between atoms: _206  and  _207
REMARK   85  A    between atoms: _210  and  _212
REMARK   86  A    between atoms: _212  and  _213
REMARK   87  A    between atoms: _212  and  _215
REMARK   88  A    between atoms: _215  and  _216
REMARK   89  A    between atoms: _222  and  _224
REMARK   90  A    between atoms: _224  and  _225
REMARK   91  A    between atoms: _224  and  _227
REMARK   92  A    between atoms: _227  and  _228
REMARK   93  A    between atoms: _234  and  _236
REMARK   94  A    between atoms: _236  and  _237
REMARK   95  A    between atoms: _236  and  _239
REMARK   96  A    between atoms: _239  and  _240
REMARK   97  A    between atoms: _243  and  _245
REMARK   98  A    between atoms: _245  and  _246
REMARK   99  A    between atoms: _245  and  _248
REMARK  100  A    between atoms: _248  and  _249
REMARK  101  A    between atoms: _252  and  _253
REMARK  102  A    between atoms: _258  and  _260
REMARK  103  A    between atoms: _260  and  _261
REMARK  104  A    between atoms: _260  and  _263
REMARK  105  A    between atoms: _263  and  _264
REMARK  106  A    between atoms: _267  and  _269
REMARK  107  A    between atoms: _269  and  _270
REMARK  108  A    between atoms: _269  and  _272
REMARK  109  A    between atoms: _272  and  _273
REMARK  110  A    between atoms: _273  and  _274
REMARK  111  A    between atoms: _274  and  _275
REMARK  112  A    between atoms: _275  and  _276
REMARK  113  A    between atoms: _280  and  _282
REMARK  114  A    between atoms: _282  and  _283
REMARK  115  A    between atoms: _282  and  _285
REMARK  116  A    between atoms: _285  and  _286
REMARK  117  A    between atoms: _286  and  _287
REMARK  118  A    between atoms: _289  and  _291
REMARK  119  A    between atoms: _291  and  _292
REMARK  120  A    between atoms: _291  and  _294
REMARK  121  A    between atoms: _294  and  _295
REMARK  122  A    between atoms: _301  and  _303
REMARK  123  A    between atoms: _303  and  _304
REMARK  124  A    between atoms: _303  and  _306
REMARK  125  A    between atoms: _308  and  _310
REMARK  126  A    between atoms: _310  and  _311
REMARK  127  A    between atoms: _310  and  _313
REMARK  128  A    between atoms: _313  and  _314
REMARK  129  A    between atoms: _314  and  _315
REMARK  130  A    between atoms: _315  and  _316
REMARK  131  A    between atoms: _316  and  _317
REMARK  132  A    between atoms: _321  and  _323
REMARK  133  A    between atoms: _323  and  _324
REMARK  134  A    between atoms: _323  and  _326
REMARK  135  A    between atoms: _326  and  _327
REMARK  136  A    between atoms: _330  and  _332
REMARK  137  A    between atoms: _332  and  _333
REMARK  138  A    between atoms: _332  and  _335
REMARK  139  A    between atoms: _335  and  _336
REMARK  140  A    between atoms: _336  and  _337
REMARK  141  A    between atoms: _337  and  _338
REMARK  142  A    between atoms: _347  and  _349
REMARK  143  A    between atoms: _349  and  _350
REMARK  144  A    between atoms: _349  and  _352
REMARK  145  A    between atoms: _352  and  _353
REMARK  146  A    between atoms: _356  and  _358
REMARK  147  A    between atoms: _358  and  _359
REMARK  148  A    between atoms: _358  and  _361
REMARK  149  A    between atoms: _361  and  _362
REMARK  150  A    between atoms: _362  and  _363
REMARK  151  A    between atoms: _363  and  _364
REMARK  152  A    between atoms: _364  and  _365
REMARK  153  A    between atoms: _369  and  _371
REMARK  154  A    between atoms: _371  and  _372
REMARK  155  A    between atoms: _371  and  _374
REMARK  156  A    between atoms: _374  and  _375
REMARK  157  A    between atoms: _378  and  _380
REMARK  158  A    between atoms: _380  and  _381
REMARK  159  A    between atoms: _380  and  _383
REMARK  160  A    between atoms: _383  and  _384
REMARK  161  A    between atoms: _384  and  _385
REMARK  162  A    between atoms: _385  and  MG_421
REMARK  163  A    between atoms: _387  and  _389
REMARK  164  A    between atoms: _389  and  _390
REMARK  165  A    between atoms: _389  and  _392
REMARK  166  A    between atoms: _392  and  _393
REMARK  167  A    between atoms: _393  and  _394
REMARK  168  A    between atoms: _394  and  _395
REMARK  169  A    between atoms: _404  and  _406
REMARK  170  A    between atoms: _406  and  _407
REMARK  171  A    between atoms: _410  and  _412
REMARK  172  A    between atoms: _412  and  _413
REMARK  173  A    between atoms: _412  and  _415
REMARK  174  A    between atoms: _415  and  _416
REMARK                            x       y       z     vdW  Elec       q    Type
REMARK                         _______ _______ _______ _____ _____    ______ ____
ROOT
ATOM      1  NE  ARG A   1       4.760  34.409  30.830  0.00  0.00    -0.265 N 
ATOM      2  HE  ARG A   1       5.149  35.247  31.308  0.00  0.00    +0.259 HD
ATOM      3  CZ  ARG A   1       5.519  33.812  29.918  0.00  0.00    +0.342 C 
ATOM      4  NH2 ARG A   1       6.744  34.263  29.683  0.00  0.00    -0.292 N 
ATOM      5 HH21 ARG A   1       7.107  35.081  30.212  0.00  0.00    +0.255 HD
ATOM      6 HH22 ARG A   1       7.341  33.798  28.970  0.00  0.00    +0.255 HD
ATOM      7  NH1 ARG A   1       5.075  32.746  29.264  0.00  0.00    -0.292 N 
ATOM      8 HH11 ARG A   1       4.126  32.371  29.464  0.00  0.00    +0.255 HD
ATOM      9 HH12 ARG A   1       5.676  32.285  28.552  0.00  0.00    +0.255 HD
ENDROOT
BRANCH   1  10
ATOM     10  CD  ARG A   1       3.417  33.974  31.211  0.00  0.00    +0.174 C 
BRANCH  10  11
ATOM     11  CG  ARG A   1       3.403  33.383  32.621  0.00  0.00    +0.045 C 
BRANCH  11  12
ATOM     12  CB  ARG A   1       4.175  32.067  32.704  0.00  0.00    +0.029 C 
BRANCH  12  13
ATOM     13  CA  ARG A   1       3.393  30.843  32.211  0.00  0.00    +0.133 C 
BRANCH  13  14
ATOM     14  N   ARG A   1       2.491  30.357  33.250  0.00  0.00    -0.239 NA
ATOM     15  H   ARG A   1       2.592  30.703  34.226  0.00  0.00    +0.142 HD
ENDBRANCH  13  14
BRANCH  13  16
ATOM     16  C   ARG A   1       4.361  29.742  31.784  0.00  0.00    +0.224 C 
ATOM     17  O   ARG A   1       4.927  29.036  32.619  0.00  0.00    -0.287 OA
ENDBRANCH  13  16
ENDBRANCH  12  13
ENDBRANCH  11  12
ENDBRANCH  10  11
ENDBRANCH   1  10
TORSDOF 6
REMARK  Name = ../refined-set-2016/1q91/1q91_pocket.pdb
REMARK  174 active torsions:
REMARK  status: ('A' for Active; 'I' for Inactive)
REMARK    1  A    between atoms: _1  and  _3
REMARK    2  A    between atoms: _3  and  _4
REMARK    3  A    between atoms: _3  and  _6
REMARK    4  A    between atoms: _6  and  _7
REMARK    5  A    between atoms: _10  and  _12
REMARK    6  A    between atoms: _12  and  _13
REMARK    7  A    between atoms: _12  and  _15
REMARK    8  A    between atoms: _15  and  _16
REMARK    9  A    between atoms: _16  and  _17
REMARK   10  A    between atoms: _19  and  _21
REMARK   11  A    between atoms: _21  and  _22
REMARK   12  A    between atoms: _21  and  _24
REMARK   13  A    between atoms: _22  and  _23
REMARK   14  A    between atoms: _22  and  _28
REMARK   15  A    between atoms: _23  and  MG_421
REMARK   16  A    between atoms: _24  and  _25
REMARK   17  A    between atoms: _28  and  _30
REMARK   18  A    between atoms: _30  and  _31
REMARK   19  A    between atoms: _33  and  _35
REMARK   20  A    between atoms: _35  and  _36
REMARK   21  A    between atoms: _35  and  _38
REMARK   22  A    between atoms: _38  and  _39
REMARK   23  A    between atoms: _45  and  _47
REMARK   24  A    between atoms: _47  and  _48
REMARK   25  A    between atoms: _47  and  _50
REMARK   26  A    between atoms: _50  and  _51
REMARK   27  A    between atoms: _51  and  _52
REMARK   28  A    between atoms: _55  and  _57
REMARK   29  A    between atoms: _57  and  _58
REMARK   30  A    between atoms: _57  and  _60
REMARK   31  A    between atoms: _60  and  _61
REMARK   32  A    between atoms: _67  and  _69
REMARK   33  A    between atoms: _69  and  _70
REMARK   34  A    between atoms: _69  and  _72
REMARK   35  A    between atoms: _72  and  _73
REMARK   36  A    between atoms: _73  and  _74
REMARK   37  A    between atoms: _74  and  _75
REMARK   38  A    between atoms: _84  and  _86
REMARK   39  A    between atoms: _86  and  _87
REMARK   40  A    between atoms: _89  and  _91
REMARK   41  A    between atoms: _91  and  _92
REMARK   42  A    between atoms: _91  and  _94
REMARK   43  A    between atoms: _94  and  _95
REMARK   44  A    between atoms: _101  and  _103
REMARK   45  A    between atoms: _103  and  _104
REMARK   46  A    between atoms: _103  and  _106
REMARK   47  A    between atoms: _106  and  _107
REMARK   48  A    between atoms: _117  and  _119
REMARK   49  A    between atoms: _119  and  _120
REMARK   50  A    between atoms: _119  and  _122
REMARK   51  A    between atoms: _125  and  _127
REMARK   52  A    between atoms: _127  and  _128
REMARK   53  A    between atoms: _127  and  _130
REMARK   54  A    between atoms: _130  and  _131
REMARK   55  A    between atoms: _133  and  _135
REMARK   56  A    between atoms: _135  and  _136
REMARK   57  A    between atoms: _135  and  _138
REMARK   58  A    between atoms: _138  and  _139
REMARK   59  A    between atoms: _139  and  _140
REMARK   60  A    between atoms: _143  and  _145
REMARK   61  A    between atoms: _145  and  _146
REMARK   62  A    between atoms: _145  and  _148
REMARK   63  A    between atoms: _148  and  _149
REMARK   64  A    between atoms: _149  and  _150
REMARK   65  A    between atoms: _155  and  _157
REMARK   66  A    between atoms: _157  and  _158
REMARK   67  A    between atoms: _157  and  _160
REMARK   68  A    between atoms: _160  and  _161
REMARK   69  A    between atoms: _166  and  _167
REMARK   70  A    between atoms: _169  and  _171
REMARK   71  A    between atoms: _171  and  _172
REMARK   72  A    between atoms: _175  and  _177
REMARK   73  A    between atoms: _177  and  _178
REMARK   74  A    between atoms: _177  and  _180
REMARK   75  A    between atoms: _180  and  _181
REMARK   76  A    between atoms: _184  and  _186
REMARK   77  A    between atoms: _186  and  _187
REMARK   78  A    between atoms: _186  and  _189
REMARK   79  A    between atoms: _189  and  _190
REMARK   80  A    between atoms: _200  and  _202
REMARK   81  A    between atoms: _202  and  _203
REMARK   82  A    between atoms: _202  and  _205
REMARK   83  A    between atoms: _205  and  _206
REMARK   84  A    between atoms: _206  and  _207
REMARK   85  A    between atoms: _210  and  _212
REMARK   86  A    between atoms: _212  and  _213
REMARK   87  A    between atoms: _212  and  _215
REMARK   88  A    between atoms: _215  and  _216
REMARK   89  A    between atoms: _222  and  _224
REMARK   90  A    between atoms: _224  and  _225
REMARK   91  A    between atoms: _224  and  _227
REMARK   92  A    between atoms: _227  and  _228
REMARK   93  A    between atoms: _234  and  _236
REMARK   94  A    between atoms: _236  and  _237
REMARK   95  A    between atoms: _236  and  _239
REMARK   96  A    between atoms: _239  and  _240
REMARK   97  A    between atoms: _243  and  _245
REMARK   98  A    between atoms: _245  and  _246
REMARK   99  A    between atoms: _245  and  _248
REMARK  100  A    between atoms: _248  and  _249
REMARK  101  A    between atoms: _252  and  _253
REMARK  102  A    between atoms: _258  and  _260
REMARK  103  A    between atoms: _260  and  _261
REMARK  104  A    between atoms: _260  and  _263
REMARK  105  A    between atoms: _263  and  _264
REMARK  106  A    between atoms: _267  and  _269
REMARK  107  A    between atoms: _269  and  _270
REMARK  108  A    between atoms: _269  and  _272
REMARK  109  A    between atoms: _272  and  _273
REMARK  110  A    between atoms: _273  and  _274
REMARK  111  A    between atoms: _274  and  _275
REMARK  112  A    between atoms: _275  and  _276
REMARK  113  A    between atoms: _280  and  _282
REMARK  114  A    between atoms: _282  and  _283
REMARK  115  A    between atoms: _282  and  _285
REMARK  116  A    between atoms: _285  and  _286
REMARK  117  A    between atoms: _286  and  _287
REMARK  118  A    between atoms: _289  and  _291
REMARK  119  A    between atoms: _291  and  _292
REMARK  120  A    between atoms: _291  and  _294
REMARK  121  A    between atoms: _294  and  _295
REMARK  122  A    between atoms: _301  and  _303
REMARK  123  A    between atoms: _303  and  _304
REMARK  124  A    between atoms: _303  and  _306
REMARK  125  A    between atoms: _308  and  _310
REMARK  126  A    between atoms: _310  and  _311
REMARK  127  A    between atoms: _310  and  _313
REMARK  128  A    between atoms: _313  and  _314
REMARK  129  A    between atoms: _314  and  _315
REMARK  130  A    between atoms: _315  and  _316
REMARK  131  A    between atoms: _316  and  _317
REMARK  132  A    between atoms: _321  and  _323
REMARK  133  A    between atoms: _323  and  _324
REMARK  134  A    between atoms: _323  and  _326
REMARK  135  A    between atoms: _326  and  _327
REMARK  136  A    between atoms: _330  and  _332
REMARK  137  A    between atoms: _332  and  _333
REMARK  138  A    between atoms: _332  and  _335
REMARK  139  A    between atoms: _335  and  _336
REMARK  140  A    between atoms: _336  and  _337
REMARK  141  A    between atoms: _337  and  _338
REMARK  142  A    between atoms: _347  and  _349
REMARK  143  A    between atoms: _349  and  _350
REMARK  144  A    between atoms: _349  and  _352
REMARK  145  A    between atoms: _352  and  _353
REMARK  146  A    between atoms: _356  and  _358
REMARK  147  A    between atoms: _358  and  _359
REMARK  148  A    between atoms: _358  and  _361
REMARK  149  A    between atoms: _361  and  _362
REMARK  150  A    between atoms: _362  and  _363
REMARK  151  A    between atoms: _363  and  _364
REMARK  152  A    between atoms: _364  and  _365
REMARK  153  A    between atoms: _369  and  _371
REMARK  154  A    between atoms: _371  and  _372
REMARK  155  A    between atoms: _371  and  _374
REMARK  156  A    between atoms: _374  and  _375
REMARK  157  A    between atoms: _378  and  _380
REMARK  158  A    between atoms: _380  and  _381
REMARK  159  A    between atoms: _380  and  _383
REMARK  160  A    between atoms: _383  and  _384
REMARK  161  A    between atoms: _384  and  _385
REMARK  162  A    between atoms: _385  and  MG_421
REMARK  163  A    between atoms: _387  and  _389
REMARK  164  A    between atoms: _389  and  _390
REMARK  165  A    between atoms: _389  and  _392
REMARK  166  A    between atoms: _392  and  _393
REMARK  167  A    between atoms: _393  and  _394
REMARK  168  A    between atoms: _394  and  _395
REMARK  169  A    between atoms: _404  and  _406
REMARK  170  A    between atoms: _406  and  _407
REMARK  171  A    between atoms: _410  and  _412
REMARK  172  A    between atoms: _412  and  _413
REMARK  173  A    between atoms: _412  and  _415
REMARK  174  A    between atoms: _415  and  _416
REMARK                            x       y       z     vdW  Elec       q    Type
REMARK                         _______ _______ _______ _____ _____    ______ ____
ROOT
ATOM      1  C   VAL A   4       4.130  36.449  25.680  0.00  0.00    +0.241 C 
ATOM      2  O   VAL A   4       3.056  35.851  25.745  0.00  0.00    -0.273 OA
ATOM      3  N   SER A   5       4.456  37.226  24.653  0.00  0.00    -0.295 N 
ATOM      4  H   SER A   5       5.389  37.685  24.632  0.00  0.00    +0.150 HD
ENDROOT
BRANCH   3   5
ATOM      5  CA  SER A   5       3.520  37.444  23.554  0.00  0.00    +0.178 C 
BRANCH   5   6
ATOM      6  C   SER A   5       3.137  36.163  22.824  0.00  0.00    +0.243 C 
ATOM      7  N   GLU A   6       4.045  35.196  22.789  0.00  0.00    -0.297 N 
ATOM      8  H   GLU A   6       4.965  35.335  23.254  0.00  0.00    +0.150 HD
ATOM      9  O   SER A   5       2.029  36.053  22.301  0.00  0.00    -0.273 OA
BRANCH   7  10
ATOM     10  CA  GLU A   6       3.764  33.942  22.104  0.00  0.00    +0.149 C 
BRANCH  10  11
ATOM     11  C   GLU A   6       2.718  33.095  22.813  0.00  0.00    +0.241 C 
ATOM     12  N   GLN A   7       2.762  33.058  24.139  0.00  0.00    -0.297 N 
ATOM     13  H   GLN A   7       3.497  33.584  24.653  0.00  0.00    +0.150 HD
ATOM     14  O   GLU A   6       1.872  32.479  22.164  0.00  0.00    -0.273 OA
BRANCH  12  15
ATOM     15  CA  GLN A   7       1.775  32.277  24.868  0.00  0.00    +0.149 C 
BRANCH  15  16
ATOM     16  C   GLN A   7       0.436  33.014  24.852  0.00  0.00    +0.241 C 
ATOM     17  N   TYR A   8       0.486  34.344  24.862  0.00  0.00    -0.298 N 
ATOM     18  H   TYR A   8       1.410  34.820  24.900  0.00  0.00    +0.150 HD
ATOM     19  O   GLN A   7      -0.626  32.389  24.823  0.00  0.00    -0.273 OA
BRANCH  17  20
ATOM     20  CA  TYR A   8      -0.733  35.146  24.820  0.00  0.00    +0.141 C 
BRANCH  20  21
ATOM     21  C   TYR A   8      -1.374  35.035  23.443  0.00  0.00    +0.227 C 
ATOM     22  O   TYR A   8      -2.599  35.051  23.313  0.00  0.00    -0.286 OA
ENDBRANCH  20  21
BRANCH  20  23
ATOM     23  CB  TYR A   8      -0.423  36.612  25.146  0.00  0.00    +0.054 C 
BRANCH  23  24
ATOM     24  CG  TYR A   8      -0.584  36.932  26.614  0.00  0.00    -0.020 A 
ATOM     25  CD2 TYR A   8       0.390  36.555  27.538  0.00  0.00    -0.001 A 
ATOM     26  CE2 TYR A   8       0.214  36.774  28.899  0.00  0.00    +0.036 A 
ATOM     27  CZ  TYR A   8      -0.946  37.380  29.353  0.00  0.00    +0.134 A 
ATOM     28  CE1 TYR A   8      -1.929  37.772  28.454  0.00  0.00    +0.036 A 
ATOM     29  CD1 TYR A   8      -1.743  37.546  27.092  0.00  0.00    -0.001 A 
BRANCH  27  30
ATOM     30  OH  TYR A   8      -1.131  37.583  30.698  0.00  0.00    -0.506 OA
ATOM     31  HH  TYR A   8      -0.406  38.160  31.046  0.00  0.00    +0.292 HD
ENDBRANCH  27  30
ENDBRANCH  23  24
ENDBRANCH  20  23
ENDBRANCH  17  20
ENDBRANCH  15  16
BRANCH  15  32
ATOM     32  CB  GLN A   7       2.233  32.020  26.307  0.00  0.00    +0.039 C 
BRANCH  32  33
ATOM     33  CG  GLN A   7       1.259  31.160  27.098  0.00  0.00    +0.087 C 
BRANCH  33  34
ATOM     34  CD  GLN A   7       1.803  30.724  28.443  0.00  0.00    +0.219 C 
ATOM     35  OE1 GLN A   7       2.510  31.474  29.115  0.00  0.00    -0.275 OA
ATOM     36  NE2 GLN A   7       1.456  29.509  28.852  0.00  0.00    -0.329 N 
ATOM     37 HE21 GLN A   7       1.784  29.157  29.774  0.00  0.00    +0.145 HD
ATOM     38 HE22 GLN A   7       0.856  28.909  28.250  0.00  0.00    +0.145 HD
ENDBRANCH  33  34
ENDBRANCH  32  33
ENDBRANCH  15  32
ENDBRANCH  12  15
ENDBRANCH  10  11
BRANCH  10  39
ATOM     39  CB  GLU A   6       5.056  33.150  21.906  0.00  0.00    +0.041 C 
BRANCH  39  40
ATOM     40  CG  GLU A   6       5.854  33.628  20.704  0.00  0.00    +0.116 C 
BRANCH  40  41
ATOM     41  CD  GLU A   6       7.198  32.948  20.580  0.00  0.00    +0.365 C 
ATOM     42  OE2 GLU A   6       7.299  31.755  20.937  0.00  0.00    -0.246 OA
ATOM     43  OE1 GLU A   6       8.152  33.607  20.111  0.00  0.00    -0.246 OA
ENDBRANCH  40  41
ENDBRANCH  39  40
ENDBRANCH  10  39
ENDBRANCH   7  10
ENDBRANCH   5   6
BRANCH   5  44
ATOM     44  CB  SER A   5       4.092  38.443  22.548  0.00  0.00    +0.166 C 
BRANCH  44  45
ATOM     45  OG  SER A   5       5.101  37.846  21.756  0.00  0.00    -0.380 OA
ATOM     46  H   SER A   5       5.834  37.530  22.341  0.00  0.00    +0.211 HD
ENDBRANCH  44  45
ENDBRANCH   5  44
ENDBRANCH   3   5
BRANCH   1  47
ATOM     47  CA  VAL A   4       5.157  36.317  26.803  0.00  0.00    +0.149 C 
BRANCH  47  49
ATOM     48  C   TRP A   3       6.782  34.976  25.580  0.00  0.00    +0.241 C 
ATOM     49  N   VAL A   4       6.506  36.036  26.330  0.00  0.00    -0.297 N 
ATOM     50  H   VAL A   4       7.276  36.686  26.588  0.00  0.00    +0.150 HD
ATOM     51  O   TRP A   3       5.929  34.167  25.215  0.00  0.00    -0.273 OA
BRANCH  48  52
ATOM     52  CA  TRP A   3       8.239  34.826  25.170  0.00  0.00    +0.153 C 
BRANCH  52  55
ATOM     53  C   PHE A   2       9.527  33.960  27.043  0.00  0.00    +0.241 C 
ATOM     54  O   PHE A   2       9.355  34.993  27.691  0.00  0.00    -0.273 OA
ATOM     55  N   TRP A   3       9.002  33.775  25.836  0.00  0.00    -0.297 N 
ATOM     56  H   TRP A   3       9.138  32.862  25.356  0.00  0.00    +0.150 HD
BRANCH  53  57
ATOM     57  CA  PHE A   2      10.361  32.813  27.611  0.00  0.00    +0.153 C 
BRANCH  57  60
ATOM     58  C   GLY A   1       8.599  31.134  27.821  0.00  0.00    +0.240 C 
ATOM     59  O   GLY A   1       7.868  31.896  28.451  0.00  0.00    -0.274 OA
ATOM     60  N   PHE A   2       9.796  31.490  27.367  0.00  0.00    -0.297 N 
ATOM     61  H   PHE A   2      10.350  30.801  26.818  0.00  0.00    +0.150 HD
BRANCH  58  62
ATOM     62  CA  GLY A   1       8.155  29.716  27.512  0.00  0.00    +0.169 C 
BRANCH  62  63
ATOM     63  N   GLY A   1       7.428  29.145  28.632  0.00  0.00    -0.236 NA
ATOM     64  H   GLY A   1       7.948  28.678  29.402  0.00  0.00    +0.142 HD
ENDBRANCH  62  63
ENDBRANCH  58  62
ENDBRANCH  57  60
BRANCH  57  65
ATOM     65  CB  PHE A   2      11.773  32.886  27.019  0.00  0.00    +0.055 C 
BRANCH  65  66
ATOM     66  CG  PHE A   2      12.554  34.103  27.438  0.00  0.00    -0.020 A 
ATOM     67  CD2 PHE A   2      13.016  34.234  28.743  0.00  0.00    -0.004 A 
ATOM     68  CE2 PHE A   2      13.759  35.348  29.133  0.00  0.00    -0.000 A 
ATOM     69  CZ  PHE A   2      14.045  36.349  28.210  0.00  0.00    -0.000 A 
ATOM     70  CE1 PHE A   2      13.584  36.230  26.900  0.00  0.00    -0.000 A 
ATOM     71  CD1 PHE A   2      12.844  35.111  26.522  0.00  0.00    -0.004 A 
ENDBRANCH  65  66
ENDBRANCH  57  65
ENDBRANCH  53  57
ENDBRANCH  52  55
BRANCH  52  72
ATOM     72  CB  TRP A   3       8.337  34.637  23.657  0.00  0.00    +0.057 C 
BRANCH  72  73
ATOM     73  CG  TRP A   3       9.747  34.461  23.212  0.00  0.00    -0.002 A 
ATOM     74  CD2 TRP A   3      10.804  35.421  23.323  0.00  0.00    +0.013 A 
ATOM     75  CE3 TRP A   3      10.872  36.743  23.787  0.00  0.00    +0.001 A 
ATOM     76  CZ3 TRP A   3      12.101  37.400  23.754  0.00  0.00    +0.000 A 
ATOM     77  CH2 TRP A   3      13.255  36.755  23.267  0.00  0.00    +0.001 A 
ATOM     78  CZ2 TRP A   3      13.214  35.462  22.807  0.00  0.00    +0.017 A 
ATOM     79  CE2 TRP A   3      11.980  34.803  22.841  0.00  0.00    +0.056 A 
ATOM     80  NE1 TRP A   3      11.648  33.532  22.453  0.00  0.00    -0.352 N 
ATOM     81  HE1 TRP A   3      12.304  32.831  22.053  0.00  0.00    +0.166 HD
ATOM     82  CD1 TRP A   3      10.306  33.334  22.678  0.00  0.00    +0.068 A 
ENDBRANCH  72  73
ENDBRANCH  52  72
ENDBRANCH  48  52
ENDBRANCH  47  49
BRANCH  47  83
ATOM     83  CB  VAL A   4       5.130  37.618  27.646  0.00  0.00    +0.027 C 
ATOM     84  CG2 VAL A   4       5.902  37.409  28.934  0.00  0.00    +0.002 C 
ATOM     85  CG1 VAL A   4       3.693  38.025  27.953  0.00  0.00    +0.002 C 
ENDBRANCH  47  83
ENDBRANCH   1  47
TORSDOF 32
REMARK  Name = ../refined-set-2016/1q91/1q91_pocket.pdb
REMARK  174 active torsions:
REMARK  status: ('A' for Active; 'I' for Inactive)
REMARK    1  A    between atoms: _1  and  _3
REMARK    2  A    between atoms: _3  and  _4
REMARK    3  A    between atoms: _3  and  _6
REMARK    4  A    between atoms: _6  and  _7
REMARK    5  A    between atoms: _10  and  _12
REMARK    6  A    between atoms: _12  and  _13
REMARK    7  A    between atoms: _12  and  _15
REMARK    8  A    between atoms: _15  and  _16
REMARK    9  A    between atoms: _16  and  _17
REMARK   10  A    between atoms: _19  and  _21
REMARK   11  A    between atoms: _21  and  _22
REMARK   12  A    between atoms: _21  and  _24
REMARK   13  A    between atoms: _22  and  _23
REMARK   14  A    between atoms: _22  and  _28
REMARK   15  A    between atoms: _23  and  MG_421
REMARK   16  A    between atoms: _24  and  _25
REMARK   17  A    between atoms: _28  and  _30
REMARK   18  A    between atoms: _30  and  _31
REMARK   19  A    between atoms: _33  and  _35
REMARK   20  A    between atoms: _35  and  _36
REMARK   21  A    between atoms: _35  and  _38
REMARK   22  A    between atoms: _38  and  _39
REMARK   23  A    between atoms: _45  and  _47
REMARK   24  A    between atoms: _47  and  _48
REMARK   25  A    between atoms: _47  and  _50
REMARK   26  A    between atoms: _50  and  _51
REMARK   27  A    between atoms: _51  and  _52
REMARK   28  A    between atoms: _55  and  _57
REMARK   29  A    between atoms: _57  and  _58
REMARK   30  A    between atoms: _57  and  _60
REMARK   31  A    between atoms: _60  and  _61
REMARK   32  A    between atoms: _67  and  _69
REMARK   33  A    between atoms: _69  and  _70
REMARK   34  A    between atoms: _69  and  _72
REMARK   35  A    between atoms: _72  and  _73
REMARK   36  A    between atoms: _73  and  _74
REMARK   37  A    between atoms: _74  and  _75
REMARK   38  A    between atoms: _84  and  _86
REMARK   39  A    between atoms: _86  and  _87
REMARK   40  A    between atoms: _89  and  _91
REMARK   41  A    between atoms: _91  and  _92
REMARK   42  A    between atoms: _91  and  _94
REMARK   43  A    between atoms: _94  and  _95
REMARK   44  A    between atoms: _101  and  _103
REMARK   45  A    between atoms: _103  and  _104
REMARK   46  A    between atoms: _103  and  _106
REMARK   47  A    between atoms: _106  and  _107
REMARK   48  A    between atoms: _117  and  _119
REMARK   49  A    between atoms: _119  and  _120
REMARK   50  A    between atoms: _119  and  _122
REMARK   51  A    between atoms: _125  and  _127
REMARK   52  A    between atoms: _127  and  _128
REMARK   53  A    between atoms: _127  and  _130
REMARK   54  A    between atoms: _130  and  _131
REMARK   55  A    between atoms: _133  and  _135
REMARK   56  A    between atoms: _135  and  _136
REMARK   57  A    between atoms: _135  and  _138
REMARK   58  A    between atoms: _138  and  _139
REMARK   59  A    between atoms: _139  and  _140
REMARK   60  A    between atoms: _143  and  _145
REMARK   61  A    between atoms: _145  and  _146
REMARK   62  A    between atoms: _145  and  _148
REMARK   63  A    between atoms: _148  and  _149
REMARK   64  A    between atoms: _149  and  _150
REMARK   65  A    between atoms: _155  and  _157
REMARK   66  A    between atoms: _157  and  _158
REMARK   67  A    between atoms: _157  and  _160
REMARK   68  A    between atoms: _160  and  _161
REMARK   69  A    between atoms: _166  and  _167
REMARK   70  A    between atoms: _169  and  _171
REMARK   71  A    between atoms: _171  and  _172
REMARK   72  A    between atoms: _175  and  _177
REMARK   73  A    between atoms: _177  and  _178
REMARK   74  A    between atoms: _177  and  _180
REMARK   75  A    between atoms: _180  and  _181
REMARK   76  A    between atoms: _184  and  _186
REMARK   77  A    between atoms: _186  and  _187
REMARK   78  A    between atoms: _186  and  _189
REMARK   79  A    between atoms: _189  and  _190
REMARK   80  A    between atoms: _200  and  _202
REMARK   81  A    between atoms: _202  and  _203
REMARK   82  A    between atoms: _202  and  _205
REMARK   83  A    between atoms: _205  and  _206
REMARK   84  A    between atoms: _206  and  _207
REMARK   85  A    between atoms: _210  and  _212
REMARK   86  A    between atoms: _212  and  _213
REMARK   87  A    between atoms: _212  and  _215
REMARK   88  A    between atoms: _215  and  _216
REMARK   89  A    between atoms: _222  and  _224
REMARK   90  A    between atoms: _224  and  _225
REMARK   91  A    between atoms: _224  and  _227
REMARK   92  A    between atoms: _227  and  _228
REMARK   93  A    between atoms: _234  and  _236
REMARK   94  A    between atoms: _236  and  _237
REMARK   95  A    between atoms: _236  and  _239
REMARK   96  A    between atoms: _239  and  _240
REMARK   97  A    between atoms: _243  and  _245
REMARK   98  A    between atoms: _245  and  _246
REMARK   99  A    between atoms: _245  and  _248
REMARK  100  A    between atoms: _248  and  _249
REMARK  101  A    between atoms: _252  and  _253
REMARK  102  A    between atoms: _258  and  _260
REMARK  103  A    between atoms: _260  and  _261
REMARK  104  A    between atoms: _260  and  _263
REMARK  105  A    between atoms: _263  and  _264
REMARK  106  A    between atoms: _267  and  _269
REMARK  107  A    between atoms: _269  and  _270
REMARK  108  A    between atoms: _269  and  _272
REMARK  109  A    between atoms: _272  and  _273
REMARK  110  A    between atoms: _273  and  _274
REMARK  111  A    between atoms: _274  and  _275
REMARK  112  A    between atoms: _275  and  _276
REMARK  113  A    between atoms: _280  and  _282
REMARK  114  A    between atoms: _282  and  _283
REMARK  115  A    between atoms: _282  and  _285
REMARK  116  A    between atoms: _285  and  _286
REMARK  117  A    between atoms: _286  and  _287
REMARK  118  A    between atoms: _289  and  _291
REMARK  119  A    between atoms: _291  and  _292
REMARK  120  A    between atoms: _291  and  _294
REMARK  121  A    between atoms: _294  and  _295
REMARK  122  A    between atoms: _301  and  _303
REMARK  123  A    between atoms: _303  and  _304
REMARK  124  A    between atoms: _303  and  _306
REMARK  125  A    between atoms: _308  and  _310
REMARK  126  A    between atoms: _310  and  _311
REMARK  127  A    between atoms: _310  and  _313
REMARK  128  A    between atoms: _313  and  _314
REMARK  129  A    between atoms: _314  and  _315
REMARK  130  A    between atoms: _315  and  _316
REMARK  131  A    between atoms: _316  and  _317
REMARK  132  A    between atoms: _321  and  _323
REMARK  133  A    between atoms: _323  and  _324
REMARK  134  A    between atoms: _323  and  _326
REMARK  135  A    between atoms: _326  and  _327
REMARK  136  A    between atoms: _330  and  _332
REMARK  137  A    between atoms: _332  and  _333
REMARK  138  A    between atoms: _332  and  _335
REMARK  139  A    between atoms: _335  and  _336
REMARK  140  A    between atoms: _336  and  _337
REMARK  141  A    between atoms: _337  and  _338
REMARK  142  A    between atoms: _347  and  _349
REMARK  143  A    between atoms: _349  and  _350
REMARK  144  A    between atoms: _349  and  _352
REMARK  145  A    between atoms: _352  and  _353
REMARK  146  A    between atoms: _356  and  _358
REMARK  147  A    between atoms: _358  and  _359
REMARK  148  A    between atoms: _358  and  _361
REMARK  149  A    between atoms: _361  and  _362
REMARK  150  A    between atoms: _362  and  _363
REMARK  151  A    between atoms: _363  and  _364
REMARK  152  A    between atoms: _364  and  _365
REMARK  153  A    between atoms: _369  and  _371
REMARK  154  A    between atoms: _371  and  _372
REMARK  155  A    between atoms: _371  and  _374
REMARK  156  A    between atoms: _374  and  _375
REMARK  157  A    between atoms: _378  and  _380
REMARK  158  A    between atoms: _380  and  _381
REMARK  159  A    between atoms: _380  and  _383
REMARK  160  A    between atoms: _383  and  _384
REMARK  161  A    between atoms: _384  and  _385
REMARK  162  A    between atoms: _385  and  MG_421
REMARK  163  A    between atoms: _387  and  _389
REMARK  164  A    between atoms: _389  and  _390
REMARK  165  A    between atoms: _389  and  _392
REMARK  166  A    between atoms: _392  and  _393
REMARK  167  A    between atoms: _393  and  _394
REMARK  168  A    between atoms: _394  and  _395
REMARK  169  A    between atoms: _404  and  _406
REMARK  170  A    between atoms: _406  and  _407
REMARK  171  A    between atoms: _410  and  _412
REMARK  172  A    between atoms: _412  and  _413
REMARK  173  A    between atoms: _412  and  _415
REMARK  174  A    between atoms: _415  and  _416
REMARK                            x       y       z     vdW  Elec       q    Type
REMARK                         _______ _______ _______ _____ _____    ______ ____
ROOT
ATOM      1  C   ALA A   1       2.021  43.099  24.705  0.00  0.00    +0.238 C 
ATOM      2  O   ALA A   1       2.620  43.689  25.604  0.00  0.00    -0.274 OA
ATOM      3  N   ILE A   2       2.369  43.185  23.425  0.00  0.00    -0.298 N 
ATOM      4  H   ILE A   2       1.818  42.660  22.716  0.00  0.00    +0.150 HD
ENDROOT
BRANCH   1   5
ATOM      5  CA  ALA A   1       0.816  42.214  25.018  0.00  0.00    +0.145 C 
ATOM      6  CB  ALA A   1       1.218  40.742  24.954  0.00  0.00    +0.028 C 
BRANCH   5   7
ATOM      7  N   ALA A   1      -0.264  42.485  24.071  0.00  0.00    -0.238 NA
ATOM      8  H   ALA A   1      -0.623  41.716  23.470  0.00  0.00    +0.142 HD
ENDBRANCH   5   7
ENDBRANCH   1   5
BRANCH   3   9
ATOM      9  CA  ILE A   2       3.500  43.994  22.984  0.00  0.00    +0.137 C 
BRANCH   9  10
ATOM     10  C   ILE A   2       3.351  45.467  23.359  0.00  0.00    +0.227 C 
ATOM     11  O   ILE A   2       4.319  46.116  23.758  0.00  0.00    -0.286 OA
ENDBRANCH   9  10
BRANCH   9  12
ATOM     12  CB  ILE A   2       3.692  43.875  21.453  0.00  0.00    +0.026 C 
ATOM     13  CG2 ILE A   2       4.683  44.921  20.954  0.00  0.00    +0.002 C 
BRANCH  12  14
ATOM     14  CG1 ILE A   2       4.159  42.460  21.109  0.00  0.00    +0.002 C 
ATOM     15  CD1 ILE A   2       4.237  42.181  19.622  0.00  0.00    +0.000 C 
ENDBRANCH  12  14
ENDBRANCH   9  12
ENDBRANCH   3   9
TORSDOF 6
REMARK  Name = ../refined-set-2016/1q91/1q91_pocket.pdb
REMARK  174 active torsions:
REMARK  status: ('A' for Active; 'I' for Inactive)
REMARK    1  A    between atoms: _1  and  _3
REMARK    2  A    between atoms: _3  and  _4
REMARK    3  A    between atoms: _3  and  _6
REMARK    4  A    between atoms: _6  and  _7
REMARK    5  A    between atoms: _10  and  _12
REMARK    6  A    between atoms: _12  and  _13
REMARK    7  A    between atoms: _12  and  _15
REMARK    8  A    between atoms: _15  and  _16
REMARK    9  A    between atoms: _16  and  _17
REMARK   10  A    between atoms: _19  and  _21
REMARK   11  A    between atoms: _21  and  _22
REMARK   12  A    between atoms: _21  and  _24
REMARK   13  A    between atoms: _22  and  _23
REMARK   14  A    between atoms: _22  and  _28
REMARK   15  A    between atoms: _23  and  MG_421
REMARK   16  A    between atoms: _24  and  _25
REMARK   17  A    between atoms: _28  and  _30
REMARK   18  A    between atoms: _30  and  _31
REMARK   19  A    between atoms: _33  and  _35
REMARK   20  A    between atoms: _35  and  _36
REMARK   21  A    between atoms: _35  and  _38
REMARK   22  A    between atoms: _38  and  _39
REMARK   23  A    between atoms: _45  and  _47
REMARK   24  A    between atoms: _47  and  _48
REMARK   25  A    between atoms: _47  and  _50
REMARK   26  A    between atoms: _50  and  _51
REMARK   27  A    between atoms: _51  and  _52
REMARK   28  A    between atoms: _55  and  _57
REMARK   29  A    between atoms: _57  and  _58
REMARK   30  A    between atoms: _57  and  _60
REMARK   31  A    between atoms: _60  and  _61
REMARK   32  A    between atoms: _67  and  _69
REMARK   33  A    between atoms: _69  and  _70
REMARK   34  A    between atoms: _69  and  _72
REMARK   35  A    between atoms: _72  and  _73
REMARK   36  A    between atoms: _73  and  _74
REMARK   37  A    between atoms: _74  and  _75
REMARK   38  A    between atoms: _84  and  _86
REMARK   39  A    between atoms: _86  and  _87
REMARK   40  A    between atoms: _89  and  _91
REMARK   41  A    between atoms: _91  and  _92
REMARK   42  A    between atoms: _91  and  _94
REMARK   43  A    between atoms: _94  and  _95
REMARK   44  A    between atoms: _101  and  _103
REMARK   45  A    between atoms: _103  and  _104
REMARK   46  A    between atoms: _103  and  _106
REMARK   47  A    between atoms: _106  and  _107
REMARK   48  A    between atoms: _117  and  _119
REMARK   49  A    between atoms: _119  and  _120
REMARK   50  A    between atoms: _119  and  _122
REMARK   51  A    between atoms: _125  and  _127
REMARK   52  A    between atoms: _127  and  _128
REMARK   53  A    between atoms: _127  and  _130
REMARK   54  A    between atoms: _130  and  _131
REMARK   55  A    between atoms: _133  and  _135
REMARK   56  A    between atoms: _135  and  _136
REMARK   57  A    between atoms: _135  and  _138
REMARK   58  A    between atoms: _138  and  _139
REMARK   59  A    between atoms: _139  and  _140
REMARK   60  A    between atoms: _143  and  _145
REMARK   61  A    between atoms: _145  and  _146
REMARK   62  A    between atoms: _145  and  _148
REMARK   63  A    between atoms: _148  and  _149
REMARK   64  A    between atoms: _149  and  _150
REMARK   65  A    between atoms: _155  and  _157
REMARK   66  A    between atoms: _157  and  _158
REMARK   67  A    between atoms: _157  and  _160
REMARK   68  A    between atoms: _160  and  _161
REMARK   69  A    between atoms: _166  and  _167
REMARK   70  A    between atoms: _169  and  _171
REMARK   71  A    between atoms: _171  and  _172
REMARK   72  A    between atoms: _175  and  _177
REMARK   73  A    between atoms: _177  and  _178
REMARK   74  A    between atoms: _177  and  _180
REMARK   75  A    between atoms: _180  and  _181
REMARK   76  A    between atoms: _184  and  _186
REMARK   77  A    between atoms: _186  and  _187
REMARK   78  A    between atoms: _186  and  _189
REMARK   79  A    between atoms: _189  and  _190
REMARK   80  A    between atoms: _200  and  _202
REMARK   81  A    between atoms: _202  and  _203
REMARK   82  A    between atoms: _202  and  _205
REMARK   83  A    between atoms: _205  and  _206
REMARK   84  A    between atoms: _206  and  _207
REMARK   85  A    between atoms: _210  and  _212
REMARK   86  A    between atoms: _212  and  _213
REMARK   87  A    between atoms: _212  and  _215
REMARK   88  A    between atoms: _215  and  _216
REMARK   89  A    between atoms: _222  and  _224
REMARK   90  A    between atoms: _224  and  _225
REMARK   91  A    between atoms: _224  and  _227
REMARK   92  A    between atoms: _227  and  _228
REMARK   93  A    between atoms: _234  and  _236
REMARK   94  A    between atoms: _236  and  _237
REMARK   95  A    between atoms: _236  and  _239
REMARK   96  A    between atoms: _239  and  _240
REMARK   97  A    between atoms: _243  and  _245
REMARK   98  A    between atoms: _245  and  _246
REMARK   99  A    between atoms: _245  and  _248
REMARK  100  A    between atoms: _248  and  _249
REMARK  101  A    between atoms: _252  and  _253
REMARK  102  A    between atoms: _258  and  _260
REMARK  103  A    between atoms: _260  and  _261
REMARK  104  A    between atoms: _260  and  _263
REMARK  105  A    between atoms: _263  and  _264
REMARK  106  A    between atoms: _267  and  _269
REMARK  107  A    between atoms: _269  and  _270
REMARK  108  A    between atoms: _269  and  _272
REMARK  109  A    between atoms: _272  and  _273
REMARK  110  A    between atoms: _273  and  _274
REMARK  111  A    between atoms: _274  and  _275
REMARK  112  A    between atoms: _275  and  _276
REMARK  113  A    between atoms: _280  and  _282
REMARK  114  A    between atoms: _282  and  _283
REMARK  115  A    between atoms: _282  and  _285
REMARK  116  A    between atoms: _285  and  _286
REMARK  117  A    between atoms: _286  and  _287
REMARK  118  A    between atoms: _289  and  _291
REMARK  119  A    between atoms: _291  and  _292
REMARK  120  A    between atoms: _291  and  _294
REMARK  121  A    between atoms: _294  and  _295
REMARK  122  A    between atoms: _301  and  _303
REMARK  123  A    between atoms: _303  and  _304
REMARK  124  A    between atoms: _303  and  _306
REMARK  125  A    between atoms: _308  and  _310
REMARK  126  A    between atoms: _310  and  _311
REMARK  127  A    between atoms: _310  and  _313
REMARK  128  A    between atoms: _313  and  _314
REMARK  129  A    between atoms: _314  and  _315
REMARK  130  A    between atoms: _315  and  _316
REMARK  131  A    between atoms: _316  and  _317
REMARK  132  A    between atoms: _321  and  _323
REMARK  133  A    between atoms: _323  and  _324
REMARK  134  A    between atoms: _323  and  _326
REMARK  135  A    between atoms: _326  and  _327
REMARK  136  A    between atoms: _330  and  _332
REMARK  137  A    between atoms: _332  and  _333
REMARK  138  A    between atoms: _332  and  _335
REMARK  139  A    between atoms: _335  and  _336
REMARK  140  A    between atoms: _336  and  _337
REMARK  141  A    between atoms: _337  and  _338
REMARK  142  A    between atoms: _347  and  _349
REMARK  143  A    between atoms: _349  and  _350
REMARK  144  A    between atoms: _349  and  _352
REMARK  145  A    between atoms: _352  and  _353
REMARK  146  A    between atoms: _356  and  _358
REMARK  147  A    between atoms: _358  and  _359
REMARK  148  A    between atoms: _358  and  _361
REMARK  149  A    between atoms: _361  and  _362
REMARK  150  A    between atoms: _362  and  _363
REMARK  151  A    between atoms: _363  and  _364
REMARK  152  A    between atoms: _364  and  _365
REMARK  153  A    between atoms: _369  and  _371
REMARK  154  A    between atoms: _371  and  _372
REMARK  155  A    between atoms: _371  and  _374
REMARK  156  A    between atoms: _374  and  _375
REMARK  157  A    between atoms: _378  and  _380
REMARK  158  A    between atoms: _380  and  _381
REMARK  159  A    between atoms: _380  and  _383
REMARK  160  A    between atoms: _383  and  _384
REMARK  161  A    between atoms: _384  and  _385
REMARK  162  A    between atoms: _385  and  MG_421
REMARK  163  A    between atoms: _387  and  _389
REMARK  164  A    between atoms: _389  and  _390
REMARK  165  A    between atoms: _389  and  _392
REMARK  166  A    between atoms: _392  and  _393
REMARK  167  A    between atoms: _393  and  _394
REMARK  168  A    between atoms: _394  and  _395
REMARK  169  A    between atoms: _404  and  _406
REMARK  170  A    between atoms: _406  and  _407
REMARK  171  A    between atoms: _410  and  _412
REMARK  172  A    between atoms: _412  and  _413
REMARK  173  A    between atoms: _412  and  _415
REMARK  174  A    between atoms: _415  and  _416
REMARK                            x       y       z     vdW  Elec       q    Type
REMARK                         _______ _______ _______ _____ _____    ______ ____
ROOT
ATOM      1  CA  TRP A   1       6.222  46.767  27.333  0.00  0.00    +0.149 C 
ENDROOT
BRANCH   1   2
ATOM      2  C   TRP A   1       6.778  47.878  26.452  0.00  0.00    +0.239 C 
ATOM      3  O   TRP A   1       7.868  48.383  26.707  0.00  0.00    -0.274 OA
ATOM      4  N   GLU A   2       6.033  48.279  25.425  0.00  0.00    -0.298 N 
ATOM      5  H   GLU A   2       5.126  47.812  25.223  0.00  0.00    +0.150 HD
BRANCH   4   6
ATOM      6  CA  GLU A   2       6.496  49.377  24.584  0.00  0.00    +0.137 C 
BRANCH   6   7
ATOM      7  C   GLU A   2       6.002  50.708  25.158  0.00  0.00    +0.227 C 
ATOM      8  O   GLU A   2       6.389  51.776  24.686  0.00  0.00    -0.286 OA
ENDBRANCH   6   7
BRANCH   6   9
ATOM      9  CB  GLU A   2       5.988  49.227  23.146  0.00  0.00    +0.039 C 
BRANCH   9  10
ATOM     10  CG  GLU A   2       6.526  48.011  22.413  0.00  0.00    +0.116 C 
BRANCH  10  11
ATOM     11  CD  GLU A   2       6.392  48.141  20.907  0.00  0.00    +0.365 C 
ATOM     12  OE2 GLU A   2       5.411  48.764  20.452  0.00  0.00    -0.246 OA
ATOM     13  OE1 GLU A   2       7.260  47.613  20.182  0.00  0.00    -0.246 OA
ENDBRANCH  10  11
ENDBRANCH   9  10
ENDBRANCH   6   9
ENDBRANCH   4   6
ENDBRANCH   1   2
BRANCH   1  14
ATOM     14  N   TRP A   1       4.820  46.441  27.091  0.00  0.00    -0.238 NA
ATOM     15  H   TRP A   1       4.561  45.585  26.559  0.00  0.00    +0.142 HD
ENDBRANCH   1  14
BRANCH   1  16
ATOM     16  CB  TRP A   1       7.117  45.518  27.267  0.00  0.00    +0.054 C 
BRANCH  16  17
ATOM     17  CG  TRP A   1       6.974  44.654  26.055  0.00  0.00    -0.002 A 
ATOM     18  CD2 TRP A   1       6.365  43.362  26.005  0.00  0.00    +0.013 A 
ATOM     19  CE3 TRP A   1       5.738  42.546  26.958  0.00  0.00    +0.001 A 
ATOM     20  CZ3 TRP A   1       5.242  41.308  26.558  0.00  0.00    +0.000 A 
ATOM     21  CH2 TRP A   1       5.364  40.877  25.226  0.00  0.00    +0.001 A 
ATOM     22  CZ2 TRP A   1       5.974  41.655  24.273  0.00  0.00    +0.017 A 
ATOM     23  CE2 TRP A   1       6.472  42.900  24.675  0.00  0.00    +0.056 A 
ATOM     24  NE1 TRP A   1       7.118  43.870  23.955  0.00  0.00    -0.352 N 
ATOM     25  HE1 TRP A   1       7.347  43.819  22.942  0.00  0.00    +0.166 HD
ATOM     26  CD1 TRP A   1       7.415  44.922  24.790  0.00  0.00    +0.068 A 
ENDBRANCH  16  17
ENDBRANCH   1  16
TORSDOF 9
REMARK  Name = ../refined-set-2016/1q91/1q91_pocket.pdb
REMARK  174 active torsions:
REMARK  status: ('A' for Active; 'I' for Inactive)
REMARK    1  A    between atoms: _1  and  _3
REMARK    2  A    between atoms: _3  and  _4
REMARK    3  A    between atoms: _3  and  _6
REMARK    4  A    between atoms: _6  and  _7
REMARK    5  A    between atoms: _10  and  _12
REMARK    6  A    between atoms: _12  and  _13
REMARK    7  A    between atoms: _12  and  _15
REMARK    8  A    between atoms: _15  and  _16
REMARK    9  A    between atoms: _16  and  _17
REMARK   10  A    between atoms: _19  and  _21
REMARK   11  A    between atoms: _21  and  _22
REMARK   12  A    between atoms: _21  and  _24
REMARK   13  A    between atoms: _22  and  _23
REMARK   14  A    between atoms: _22  and  _28
REMARK   15  A    between atoms: _23  and  MG_421
REMARK   16  A    between atoms: _24  and  _25
REMARK   17  A    between atoms: _28  and  _30
REMARK   18  A    between atoms: _30  and  _31
REMARK   19  A    between atoms: _33  and  _35
REMARK   20  A    between atoms: _35  and  _36
REMARK   21  A    between atoms: _35  and  _38
REMARK   22  A    between atoms: _38  and  _39
REMARK   23  A    between atoms: _45  and  _47
REMARK   24  A    between atoms: _47  and  _48
REMARK   25  A    between atoms: _47  and  _50
REMARK   26  A    between atoms: _50  and  _51
REMARK   27  A    between atoms: _51  and  _52
REMARK   28  A    between atoms: _55  and  _57
REMARK   29  A    between atoms: _57  and  _58
REMARK   30  A    between atoms: _57  and  _60
REMARK   31  A    between atoms: _60  and  _61
REMARK   32  A    between atoms: _67  and  _69
REMARK   33  A    between atoms: _69  and  _70
REMARK   34  A    between atoms: _69  and  _72
REMARK   35  A    between atoms: _72  and  _73
REMARK   36  A    between atoms: _73  and  _74
REMARK   37  A    between atoms: _74  and  _75
REMARK   38  A    between atoms: _84  and  _86
REMARK   39  A    between atoms: _86  and  _87
REMARK   40  A    between atoms: _89  and  _91
REMARK   41  A    between atoms: _91  and  _92
REMARK   42  A    between atoms: _91  and  _94
REMARK   43  A    between atoms: _94  and  _95
REMARK   44  A    between atoms: _101  and  _103
REMARK   45  A    between atoms: _103  and  _104
REMARK   46  A    between atoms: _103  and  _106
REMARK   47  A    between atoms: _106  and  _107
REMARK   48  A    between atoms: _117  and  _119
REMARK   49  A    between atoms: _119  and  _120
REMARK   50  A    between atoms: _119  and  _122
REMARK   51  A    between atoms: _125  and  _127
REMARK   52  A    between atoms: _127  and  _128
REMARK   53  A    between atoms: _127  and  _130
REMARK   54  A    between atoms: _130  and  _131
REMARK   55  A    between atoms: _133  and  _135
REMARK   56  A    between atoms: _135  and  _136
REMARK   57  A    between atoms: _135  and  _138
REMARK   58  A    between atoms: _138  and  _139
REMARK   59  A    between atoms: _139  and  _140
REMARK   60  A    between atoms: _143  and  _145
REMARK   61  A    between atoms: _145  and  _146
REMARK   62  A    between atoms: _145  and  _148
REMARK   63  A    between atoms: _148  and  _149
REMARK   64  A    between atoms: _149  and  _150
REMARK   65  A    between atoms: _155  and  _157
REMARK   66  A    between atoms: _157  and  _158
REMARK   67  A    between atoms: _157  and  _160
REMARK   68  A    between atoms: _160  and  _161
REMARK   69  A    between atoms: _166  and  _167
REMARK   70  A    between atoms: _169  and  _171
REMARK   71  A    between atoms: _171  and  _172
REMARK   72  A    between atoms: _175  and  _177
REMARK   73  A    between atoms: _177  and  _178
REMARK   74  A    between atoms: _177  and  _180
REMARK   75  A    between atoms: _180  and  _181
REMARK   76  A    between atoms: _184  and  _186
REMARK   77  A    between atoms: _186  and  _187
REMARK   78  A    between atoms: _186  and  _189
REMARK   79  A    between atoms: _189  and  _190
REMARK   80  A    between atoms: _200  and  _202
REMARK   81  A    between atoms: _202  and  _203
REMARK   82  A    between atoms: _202  and  _205
REMARK   83  A    between atoms: _205  and  _206
REMARK   84  A    between atoms: _206  and  _207
REMARK   85  A    between atoms: _210  and  _212
REMARK   86  A    between atoms: _212  and  _213
REMARK   87  A    between atoms: _212  and  _215
REMARK   88  A    between atoms: _215  and  _216
REMARK   89  A    between atoms: _222  and  _224
REMARK   90  A    between atoms: _224  and  _225
REMARK   91  A    between atoms: _224  and  _227
REMARK   92  A    between atoms: _227  and  _228
REMARK   93  A    between atoms: _234  and  _236
REMARK   94  A    between atoms: _236  and  _237
REMARK   95  A    between atoms: _236  and  _239
REMARK   96  A    between atoms: _239  and  _240
REMARK   97  A    between atoms: _243  and  _245
REMARK   98  A    between atoms: _245  and  _246
REMARK   99  A    between atoms: _245  and  _248
REMARK  100  A    between atoms: _248  and  _249
REMARK  101  A    between atoms: _252  and  _253
REMARK  102  A    between atoms: _258  and  _260
REMARK  103  A    between atoms: _260  and  _261
REMARK  104  A    between atoms: _260  and  _263
REMARK  105  A    between atoms: _263  and  _264
REMARK  106  A    between atoms: _267  and  _269
REMARK  107  A    between atoms: _269  and  _270
REMARK  108  A    between atoms: _269  and  _272
REMARK  109  A    between atoms: _272  and  _273
REMARK  110  A    between atoms: _273  and  _274
REMARK  111  A    between atoms: _274  and  _275
REMARK  112  A    between atoms: _275  and  _276
REMARK  113  A    between atoms: _280  and  _282
REMARK  114  A    between atoms: _282  and  _283
REMARK  115  A    between atoms: _282  and  _285
REMARK  116  A    between atoms: _285  and  _286
REMARK  117  A    between atoms: _286  and  _287
REMARK  118  A    between atoms: _289  and  _291
REMARK  119  A    between atoms: _291  and  _292
REMARK  120  A    between atoms: _291  and  _294
REMARK  121  A    between atoms: _294  and  _295
REMARK  122  A    between atoms: _301  and  _303
REMARK  123  A    between atoms: _303  and  _304
REMARK  124  A    between atoms: _303  and  _306
REMARK  125  A    between atoms: _308  and  _310
REMARK  126  A    between atoms: _310  and  _311
REMARK  127  A    between atoms: _310  and  _313
REMARK  128  A    between atoms: _313  and  _314
REMARK  129  A    between atoms: _314  and  _315
REMARK  130  A    between atoms: _315  and  _316
REMARK  131  A    between atoms: _316  and  _317
REMARK  132  A    between atoms: _321  and  _323
REMARK  133  A    between atoms: _323  and  _324
REMARK  134  A    between atoms: _323  and  _326
REMARK  135  A    between atoms: _326  and  _327
REMARK  136  A    between atoms: _330  and  _332
REMARK  137  A    between atoms: _332  and  _333
REMARK  138  A    between atoms: _332  and  _335
REMARK  139  A    between atoms: _335  and  _336
REMARK  140  A    between atoms: _336  and  _337
REMARK  141  A    between atoms: _337  and  _338
REMARK  142  A    between atoms: _347  and  _349
REMARK  143  A    between atoms: _349  and  _350
REMARK  144  A    between atoms: _349  and  _352
REMARK  145  A    between atoms: _352  and  _353
REMARK  146  A    between atoms: _356  and  _358
REMARK  147  A    between atoms: _358  and  _359
REMARK  148  A    between atoms: _358  and  _361
REMARK  149  A    between atoms: _361  and  _362
REMARK  150  A    between atoms: _362  and  _363
REMARK  151  A    between atoms: _363  and  _364
REMARK  152  A    between atoms: _364  and  _365
REMARK  153  A    between atoms: _369  and  _371
REMARK  154  A    between atoms: _371  and  _372
REMARK  155  A    between atoms: _371  and  _374
REMARK  156  A    between atoms: _374  and  _375
REMARK  157  A    between atoms: _378  and  _380
REMARK  158  A    between atoms: _380  and  _381
REMARK  159  A    between atoms: _380  and  _383
REMARK  160  A    between atoms: _383  and  _384
REMARK  161  A    between atoms: _384  and  _385
REMARK  162  A    between atoms: _385  and  MG_421
REMARK  163  A    between atoms: _387  and  _389
REMARK  164  A    between atoms: _389  and  _390
REMARK  165  A    between atoms: _389  and  _392
REMARK  166  A    between atoms: _392  and  _393
REMARK  167  A    between atoms: _393  and  _394
REMARK  168  A    between atoms: _394  and  _395
REMARK  169  A    between atoms: _404  and  _406
REMARK  170  A    between atoms: _406  and  _407
REMARK  171  A    between atoms: _410  and  _412
REMARK  172  A    between atoms: _412  and  _413
REMARK  173  A    between atoms: _412  and  _415
REMARK  174  A    between atoms: _415  and  _416
REMARK                            x       y       z     vdW  Elec       q    Type
REMARK                         _______ _______ _______ _____ _____    ______ ____
ROOT
ATOM      1  C   PHE A   1       7.970  49.517  32.624  0.00  0.00    +0.239 C 
ATOM      2  O   PHE A   1       7.882  48.916  33.692  0.00  0.00    -0.274 OA
ATOM      3  N   PHE A   2       9.139  49.751  32.039  0.00  0.00    -0.298 N 
ATOM      4  H   PHE A   2       9.176  50.264  31.135  0.00  0.00    +0.150 HD
ENDROOT
BRANCH   1   5
ATOM      5  CA  PHE A   1       6.721  50.024  31.905  0.00  0.00    +0.149 C 
BRANCH   5   6
ATOM      6  N   PHE A   1       6.846  51.450  31.628  0.00  0.00    -0.238 NA
ATOM      7  H   PHE A   1       6.849  51.800  30.649  0.00  0.00    +0.142 HD
ENDBRANCH   5   6
BRANCH   5   8
ATOM      8  CB  PHE A   1       6.534  49.207  30.628  0.00  0.00    +0.053 C 
BRANCH   8   9
ATOM      9  CG  PHE A   1       6.522  47.730  30.877  0.00  0.00    -0.020 A 
ATOM     10  CD2 PHE A   1       5.435  47.135  31.508  0.00  0.00    -0.004 A 
ATOM     11  CE2 PHE A   1       5.458  45.785  31.842  0.00  0.00    -0.000 A 
ATOM     12  CZ  PHE A   1       6.574  45.016  31.541  0.00  0.00    -0.000 A 
ATOM     13  CE1 PHE A   1       7.665  45.595  30.905  0.00  0.00    -0.000 A 
ATOM     14  CD1 PHE A   1       7.633  46.950  30.574  0.00  0.00    -0.004 A 
ENDBRANCH   8   9
ENDBRANCH   5   8
ENDBRANCH   1   5
BRANCH   3  15
ATOM     15  CA  PHE A   2      10.368  49.287  32.666  0.00  0.00    +0.141 C 
BRANCH  15  16
ATOM     16  C   PHE A   2      10.696  50.026  33.953  0.00  0.00    +0.227 C 
ATOM     17  O   PHE A   2      11.105  49.412  34.940  0.00  0.00    -0.286 OA
ENDBRANCH  15  16
BRANCH  15  18
ATOM     18  CB  PHE A   2      11.531  49.384  31.671  0.00  0.00    +0.054 C 
BRANCH  18  19
ATOM     19  CG  PHE A   2      11.488  48.319  30.610  0.00  0.00    -0.020 A 
ATOM     20  CD2 PHE A   2      11.952  47.037  30.880  0.00  0.00    -0.004 A 
ATOM     21  CE2 PHE A   2      11.851  46.021  29.927  0.00  0.00    -0.000 A 
ATOM     22  CZ  PHE A   2      11.279  46.288  28.682  0.00  0.00    -0.000 A 
ATOM     23  CE1 PHE A   2      10.815  47.567  28.400  0.00  0.00    -0.000 A 
ATOM     24  CD1 PHE A   2      10.923  48.577  29.366  0.00  0.00    -0.004 A 
ENDBRANCH  18  19
ENDBRANCH  15  18
ENDBRANCH   3  15
TORSDOF 8
REMARK  Name = ../refined-set-2016/1q91/1q91_pocket.pdb
REMARK  174 active torsions:
REMARK  status: ('A' for Active; 'I' for Inactive)
REMARK    1  A    between atoms: _1  and  _3
REMARK    2  A    between atoms: _3  and  _4
REMARK    3  A    between atoms: _3  and  _6
REMARK    4  A    between atoms: _6  and  _7
REMARK    5  A    between atoms: _10  and  _12
REMARK    6  A    between atoms: _12  and  _13
REMARK    7  A    between atoms: _12  and  _15
REMARK    8  A    between atoms: _15  and  _16
REMARK    9  A    between atoms: _16  and  _17
REMARK   10  A    between atoms: _19  and  _21
REMARK   11  A    between atoms: _21  and  _22
REMARK   12  A    between atoms: _21  and  _24
REMARK   13  A    between atoms: _22  and  _23
REMARK   14  A    between atoms: _22  and  _28
REMARK   15  A    between atoms: _23  and  MG_421
REMARK   16  A    between atoms: _24  and  _25
REMARK   17  A    between atoms: _28  and  _30
REMARK   18  A    between atoms: _30  and  _31
REMARK   19  A    between atoms: _33  and  _35
REMARK   20  A    between atoms: _35  and  _36
REMARK   21  A    between atoms: _35  and  _38
REMARK   22  A    between atoms: _38  and  _39
REMARK   23  A    between atoms: _45  and  _47
REMARK   24  A    between atoms: _47  and  _48
REMARK   25  A    between atoms: _47  and  _50
REMARK   26  A    between atoms: _50  and  _51
REMARK   27  A    between atoms: _51  and  _52
REMARK   28  A    between atoms: _55  and  _57
REMARK   29  A    between atoms: _57  and  _58
REMARK   30  A    between atoms: _57  and  _60
REMARK   31  A    between atoms: _60  and  _61
REMARK   32  A    between atoms: _67  and  _69
REMARK   33  A    between atoms: _69  and  _70
REMARK   34  A    between atoms: _69  and  _72
REMARK   35  A    between atoms: _72  and  _73
REMARK   36  A    between atoms: _73  and  _74
REMARK   37  A    between atoms: _74  and  _75
REMARK   38  A    between atoms: _84  and  _86
REMARK   39  A    between atoms: _86  and  _87
REMARK   40  A    between atoms: _89  and  _91
REMARK   41  A    between atoms: _91  and  _92
REMARK   42  A    between atoms: _91  and  _94
REMARK   43  A    between atoms: _94  and  _95
REMARK   44  A    between atoms: _101  and  _103
REMARK   45  A    between atoms: _103  and  _104
REMARK   46  A    between atoms: _103  and  _106
REMARK   47  A    between atoms: _106  and  _107
REMARK   48  A    between atoms: _117  and  _119
REMARK   49  A    between atoms: _119  and  _120
REMARK   50  A    between atoms: _119  and  _122
REMARK   51  A    between atoms: _125  and  _127
REMARK   52  A    between atoms: _127  and  _128
REMARK   53  A    between atoms: _127  and  _130
REMARK   54  A    between atoms: _130  and  _131
REMARK   55  A    between atoms: _133  and  _135
REMARK   56  A    between atoms: _135  and  _136
REMARK   57  A    between atoms: _135  and  _138
REMARK   58  A    between atoms: _138  and  _139
REMARK   59  A    between atoms: _139  and  _140
REMARK   60  A    between atoms: _143  and  _145
REMARK   61  A    between atoms: _145  and  _146
REMARK   62  A    between atoms: _145  and  _148
REMARK   63  A    between atoms: _148  and  _149
REMARK   64  A    between atoms: _149  and  _150
REMARK   65  A    between atoms: _155  and  _157
REMARK   66  A    between atoms: _157  and  _158
REMARK   67  A    between atoms: _157  and  _160
REMARK   68  A    between atoms: _160  and  _161
REMARK   69  A    between atoms: _166  and  _167
REMARK   70  A    between atoms: _169  and  _171
REMARK   71  A    between atoms: _171  and  _172
REMARK   72  A    between atoms: _175  and  _177
REMARK   73  A    between atoms: _177  and  _178
REMARK   74  A    between atoms: _177  and  _180
REMARK   75  A    between atoms: _180  and  _181
REMARK   76  A    between atoms: _184  and  _186
REMARK   77  A    between atoms: _186  and  _187
REMARK   78  A    between atoms: _186  and  _189
REMARK   79  A    between atoms: _189  and  _190
REMARK   80  A    between atoms: _200  and  _202
REMARK   81  A    between atoms: _202  and  _203
REMARK   82  A    between atoms: _202  and  _205
REMARK   83  A    between atoms: _205  and  _206
REMARK   84  A    between atoms: _206  and  _207
REMARK   85  A    between atoms: _210  and  _212
REMARK   86  A    between atoms: _212  and  _213
REMARK   87  A    between atoms: _212  and  _215
REMARK   88  A    between atoms: _215  and  _216
REMARK   89  A    between atoms: _222  and  _224
REMARK   90  A    between atoms: _224  and  _225
REMARK   91  A    between atoms: _224  and  _227
REMARK   92  A    between atoms: _227  and  _228
REMARK   93  A    between atoms: _234  and  _236
REMARK   94  A    between atoms: _236  and  _237
REMARK   95  A    between atoms: _236  and  _239
REMARK   96  A    between atoms: _239  and  _240
REMARK   97  A    between atoms: _243  and  _245
REMARK   98  A    between atoms: _245  and  _246
REMARK   99  A    between atoms: _245  and  _248
REMARK  100  A    between atoms: _248  and  _249
REMARK  101  A    between atoms: _252  and  _253
REMARK  102  A    between atoms: _258  and  _260
REMARK  103  A    between atoms: _260  and  _261
REMARK  104  A    between atoms: _260  and  _263
REMARK  105  A    between atoms: _263  and  _264
REMARK  106  A    between atoms: _267  and  _269
REMARK  107  A    between atoms: _269  and  _270
REMARK  108  A    between atoms: _269  and  _272
REMARK  109  A    between atoms: _272  and  _273
REMARK  110  A    between atoms: _273  and  _274
REMARK  111  A    between atoms: _274  and  _275
REMARK  112  A    between atoms: _275  and  _276
REMARK  113  A    between atoms: _280  and  _282
REMARK  114  A    between atoms: _282  and  _283
REMARK  115  A    between atoms: _282  and  _285
REMARK  116  A    between atoms: _285  and  _286
REMARK  117  A    between atoms: _286  and  _287
REMARK  118  A    between atoms: _289  and  _291
REMARK  119  A    between atoms: _291  and  _292
REMARK  120  A    between atoms: _291  and  _294
REMARK  121  A    between atoms: _294  and  _295
REMARK  122  A    between atoms: _301  and  _303
REMARK  123  A    between atoms: _303  and  _304
REMARK  124  A    between atoms: _303  and  _306
REMARK  125  A    between atoms: _308  and  _310
REMARK  126  A    between atoms: _310  and  _311
REMARK  127  A    between atoms: _310  and  _313
REMARK  128  A    between atoms: _313  and  _314
REMARK  129  A    between atoms: _314  and  _315
REMARK  130  A    between atoms: _315  and  _316
REMARK  131  A    between atoms: _316  and  _317
REMARK  132  A    between atoms: _321  and  _323
REMARK  133  A    between atoms: _323  and  _324
REMARK  134  A    between atoms: _323  and  _326
REMARK  135  A    between atoms: _326  and  _327
REMARK  136  A    between atoms: _330  and  _332
REMARK  137  A    between atoms: _332  and  _333
REMARK  138  A    between atoms: _332  and  _335
REMARK  139  A    between atoms: _335  and  _336
REMARK  140  A    between atoms: _336  and  _337
REMARK  141  A    between atoms: _337  and  _338
REMARK  142  A    between atoms: _347  and  _349
REMARK  143  A    between atoms: _349  and  _350
REMARK  144  A    between atoms: _349  and  _352
REMARK  145  A    between atoms: _352  and  _353
REMARK  146  A    between atoms: _356  and  _358
REMARK  147  A    between atoms: _358  and  _359
REMARK  148  A    between atoms: _358  and  _361
REMARK  149  A    between atoms: _361  and  _362
REMARK  150  A    between atoms: _362  and  _363
REMARK  151  A    between atoms: _363  and  _364
REMARK  152  A    between atoms: _364  and  _365
REMARK  153  A    between atoms: _369  and  _371
REMARK  154  A    between atoms: _371  and  _372
REMARK  155  A    between atoms: _371  and  _374
REMARK  156  A    between atoms: _374  and  _375
REMARK  157  A    between atoms: _378  and  _380
REMARK  158  A    between atoms: _380  and  _381
REMARK  159  A    between atoms: _380  and  _383
REMARK  160  A    between atoms: _383  and  _384
REMARK  161  A    between atoms: _384  and  _385
REMARK  162  A    between atoms: _385  and  MG_421
REMARK  163  A    between atoms: _387  and  _389
REMARK  164  A    between atoms: _389  and  _390
REMARK  165  A    between atoms: _389  and  _392
REMARK  166  A    between atoms: _392  and  _393
REMARK  167  A    between atoms: _393  and  _394
REMARK  168  A    between atoms: _394  and  _395
REMARK  169  A    between atoms: _404  and  _406
REMARK  170  A    between atoms: _406  and  _407
REMARK  171  A    between atoms: _410  and  _412
REMARK  172  A    between atoms: _412  and  _413
REMARK  173  A    between atoms: _412  and  _415
REMARK  174  A    between atoms: _415  and  _416
REMARK                            x       y       z     vdW  Elec       q    Type
REMARK                         _______ _______ _______ _____ _____    ______ ____
ROOT
ATOM      1  C   ILE A   4      14.198  46.724  22.301  0.00  0.00    +0.241 C 
ATOM      2  O   ILE A   4      14.900  47.733  22.396  0.00  0.00    -0.273 OA
ATOM      3  N   LYS A   5      13.674  46.311  21.151  0.00  0.00    -0.297 N 
ATOM      4  H   LYS A   5      13.078  45.458  21.149  0.00  0.00    +0.150 HD
ENDROOT
BRANCH   3   5
ATOM      5  CA  LYS A   5      13.905  47.012  19.891  0.00  0.00    +0.149 C 
BRANCH   5   6
ATOM      6  C   LYS A   5      13.409  48.451  19.880  0.00  0.00    +0.241 C 
ATOM      7  N   MET A   6      12.240  48.695  20.467  0.00  0.00    -0.297 N 
ATOM      8  H   MET A   6      11.702  47.912  20.890  0.00  0.00    +0.150 HD
ATOM      9  O   LYS A   5      14.068  49.329  19.323  0.00  0.00    -0.273 OA
BRANCH   7  10
ATOM     10  CA  MET A   6      11.706  50.053  20.523  0.00  0.00    +0.149 C 
BRANCH  10  11
ATOM     11  C   MET A   6      12.524  50.726  21.623  0.00  0.00    +0.241 C 
ATOM     12  O   MET A   6      12.349  50.442  22.807  0.00  0.00    -0.273 OA
ATOM     13  N   PHE A   7      13.419  51.619  21.214  0.00  0.00    -0.298 N 
ATOM     14  H   PHE A   7      13.463  51.855  20.202  0.00  0.00    +0.150 HD
BRANCH  13  15
ATOM     15  CA  PHE A   7      14.342  52.282  22.129  0.00  0.00    +0.141 C 
BRANCH  15  16
ATOM     16  C   PHE A   7      13.938  53.610  22.752  0.00  0.00    +0.227 C 
ATOM     17  O   PHE A   7      14.734  54.220  23.468  0.00  0.00    -0.286 OA
ENDBRANCH  15  16
BRANCH  15  18
ATOM     18  CB  PHE A   7      15.689  52.468  21.418  0.00  0.00    +0.054 C 
BRANCH  18  19
ATOM     19  CG  PHE A   7      15.578  53.155  20.079  0.00  0.00    -0.020 A 
ATOM     20  CD2 PHE A   7      15.595  54.541  19.994  0.00  0.00    -0.004 A 
ATOM     21  CE2 PHE A   7      15.470  55.188  18.767  0.00  0.00    -0.000 A 
ATOM     22  CZ  PHE A   7      15.327  54.441  17.601  0.00  0.00    -0.000 A 
ATOM     23  CE1 PHE A   7      15.310  53.055  17.670  0.00  0.00    -0.000 A 
ATOM     24  CD1 PHE A   7      15.435  52.416  18.909  0.00  0.00    -0.004 A 
ENDBRANCH  18  19
ENDBRANCH  15  18
ENDBRANCH  13  15
ENDBRANCH  10  11
BRANCH  10  25
ATOM     25  CB  MET A   6      10.216  50.029  20.873  0.00  0.00    +0.041 C 
BRANCH  25  26
ATOM     26  CG  MET A   6       9.402  51.149  20.222  0.00  0.00    +0.060 C 
BRANCH  26  27
ATOM     27  SD  MET A   6       9.645  52.792  20.940  0.00  0.00    -0.139 S 
ATOM     28  CE  MET A   6       8.409  52.757  22.252  0.00  0.00    +0.069 C 
ENDBRANCH  26  27
ENDBRANCH  25  26
ENDBRANCH  10  25
ENDBRANCH   7  10
ENDBRANCH   5   6
BRANCH   5  29
ATOM     29  CB  LYS A   5      13.266  46.239  18.733  0.00  0.00    +0.029 C 
BRANCH  29  30
ATOM     30  CG  LYS A   5      13.930  44.899  18.446  0.00  0.00    +0.000 C 
BRANCH  30  31
ATOM     31  CD  LYS A   5      13.350  44.249  17.199  0.00  0.00    -0.024 C 
BRANCH  31  32
ATOM     32  CE  LYS A   5      14.044  42.932  16.891  0.00  0.00    -0.086 C 
BRANCH  32  33
ATOM     33  NZ  LYS A   5      13.515  42.306  15.645  0.00  0.00    +0.380 N 
ATOM     34  HZ1 LYS A   5      12.498  42.122  15.756  0.00  0.00    -0.089 HD
ATOM     35  HZ2 LYS A   5      14.014  41.410  15.470  0.00  0.00    -0.089 HD
ATOM     36  HZ3 LYS A   5      13.666  42.951  14.843  0.00  0.00    -0.089 HD
ENDBRANCH  32  33
ENDBRANCH  31  32
ENDBRANCH  30  31
ENDBRANCH  29  30
ENDBRANCH   5  29
ENDBRANCH   3   5
BRANCH   1  37
ATOM     37  CA  ILE A   4      13.886  45.870  23.531  0.00  0.00    +0.149 C 
BRANCH  37  39
ATOM     38  C   PRO A   3      16.050  45.894  24.603  0.00  0.00    +0.241 C 
ATOM     39  N   ILE A   4      14.772  46.259  24.617  0.00  0.00    -0.297 N 
ATOM     40  H   ILE A   4      14.404  46.825  25.408  0.00  0.00    +0.150 HD
ATOM     41  O   PRO A   3      16.532  45.187  23.712  0.00  0.00    -0.273 OA
BRANCH  38  45
ATOM     42  C   SER A   2      17.860  44.269  26.549  0.00  0.00    +0.246 C 
ATOM     43  O   SER A   2      16.750  43.889  26.924  0.00  0.00    -0.273 OA
ATOM     44  N   PRO A   3      18.047  45.464  25.970  0.00  0.00    -0.272 N 
ATOM     45  CA  PRO A   3      16.916  46.370  25.767  0.00  0.00    +0.152 C 
ATOM     46  CB  PRO A   3      17.599  47.699  25.472  0.00  0.00    +0.031 C 
ATOM     47  CG  PRO A   3      18.811  47.268  24.691  0.00  0.00    +0.024 C 
ATOM     48  CD  PRO A   3      19.303  46.059  25.475  0.00  0.00    +0.094 C 
BRANCH  42  49
ATOM     49  CA  SER A   2      19.077  43.379  26.723  0.00  0.00    +0.178 C 
BRANCH  49  52
ATOM     50  C   THR A   1      20.379  43.824  28.746  0.00  0.00    +0.241 C 
ATOM     51  O   THR A   1      21.112  44.626  28.168  0.00  0.00    -0.274 OA
ATOM     52  N   SER A   2      19.385  43.178  28.139  0.00  0.00    -0.295 N 
ATOM     53  H   SER A   2      18.809  42.509  28.689  0.00  0.00    +0.150 HD
BRANCH  50  54
ATOM     54  CA  THR A   1      20.579  43.519  30.233  0.00  0.00    +0.172 C 
BRANCH  54  55
ATOM     55  N   THR A   1      21.974  43.577  30.660  0.00  0.00    -0.236 NA
ATOM     56  H   THR A   1      22.550  44.400  30.390  0.00  0.00    +0.142 HD
ENDBRANCH  54  55
BRANCH  54  57
ATOM     57  CB  THR A   1      19.757  44.518  31.102  0.00  0.00    +0.135 C 
ATOM     58  CG2 THR A   1      20.312  45.924  30.955  0.00  0.00    +0.034 C 
BRANCH  57  59
ATOM     59  OG1 THR A   1      18.378  44.503  30.724  0.00  0.00    -0.383 OA
ATOM     60  HG1 THR A   1      17.876  45.143  31.288  0.00  0.00    +0.210 HD
ENDBRANCH  57  59
ENDBRANCH  54  57
ENDBRANCH  50  54
ENDBRANCH  49  52
BRANCH  49  61
ATOM     61  CB  SER A   2      18.792  42.044  26.031  0.00  0.00    +0.166 C 
BRANCH  61  62
ATOM     62  OG  SER A   2      19.921  41.195  26.057  0.00  0.00    -0.380 OA
ATOM     63  H   SER A   2      20.675  41.636  25.590  0.00  0.00    +0.211 HD
ENDBRANCH  61  62
ENDBRANCH  49  61
ENDBRANCH  42  49
ENDBRANCH  38  45
ENDBRANCH  37  39
BRANCH  37  64
ATOM     64  CB  ILE A   4      12.392  46.025  23.913  0.00  0.00    +0.027 C 
ATOM     65  CG2 ILE A   4      12.053  45.069  25.050  0.00  0.00    +0.002 C 
BRANCH  64  66
ATOM     66  CG1 ILE A   4      12.084  47.466  24.329  0.00  0.00    +0.002 C 
ATOM     67  CD1 ILE A   4      10.584  47.743  24.472  0.00  0.00    +0.000 C 
ENDBRANCH  64  66
ENDBRANCH  37  64
ENDBRANCH   1  37
TORSDOF 29
REMARK  Name = ../refined-set-2016/1q91/1q91_pocket.pdb
REMARK  174 active torsions:
REMARK  status: ('A' for Active; 'I' for Inactive)
REMARK    1  A    between atoms: _1  and  _3
REMARK    2  A    between atoms: _3  and  _4
REMARK    3  A    between atoms: _3  and  _6
REMARK    4  A    between atoms: _6  and  _7
REMARK    5  A    between atoms: _10  and  _12
REMARK    6  A    between atoms: _12  and  _13
REMARK    7  A    between atoms: _12  and  _15
REMARK    8  A    between atoms: _15  and  _16
REMARK    9  A    between atoms: _16  and  _17
REMARK   10  A    between atoms: _19  and  _21
REMARK   11  A    between atoms: _21  and  _22
REMARK   12  A    between atoms: _21  and  _24
REMARK   13  A    between atoms: _22  and  _23
REMARK   14  A    between atoms: _22  and  _28
REMARK   15  A    between atoms: _23  and  MG_421
REMARK   16  A    between atoms: _24  and  _25
REMARK   17  A    between atoms: _28  and  _30
REMARK   18  A    between atoms: _30  and  _31
REMARK   19  A    between atoms: _33  and  _35
REMARK   20  A    between atoms: _35  and  _36
REMARK   21  A    between atoms: _35  and  _38
REMARK   22  A    between atoms: _38  and  _39
REMARK   23  A    between atoms: _45  and  _47
REMARK   24  A    between atoms: _47  and  _48
REMARK   25  A    between atoms: _47  and  _50
REMARK   26  A    between atoms: _50  and  _51
REMARK   27  A    between atoms: _51  and  _52
REMARK   28  A    between atoms: _55  and  _57
REMARK   29  A    between atoms: _57  and  _58
REMARK   30  A    between atoms: _57  and  _60
REMARK   31  A    between atoms: _60  and  _61
REMARK   32  A    between atoms: _67  and  _69
REMARK   33  A    between atoms: _69  and  _70
REMARK   34  A    between atoms: _69  and  _72
REMARK   35  A    between atoms: _72  and  _73
REMARK   36  A    between atoms: _73  and  _74
REMARK   37  A    between atoms: _74  and  _75
REMARK   38  A    between atoms: _84  and  _86
REMARK   39  A    between atoms: _86  and  _87
REMARK   40  A    between atoms: _89  and  _91
REMARK   41  A    between atoms: _91  and  _92
REMARK   42  A    between atoms: _91  and  _94
REMARK   43  A    between atoms: _94  and  _95
REMARK   44  A    between atoms: _101  and  _103
REMARK   45  A    between atoms: _103  and  _104
REMARK   46  A    between atoms: _103  and  _106
REMARK   47  A    between atoms: _106  and  _107
REMARK   48  A    between atoms: _117  and  _119
REMARK   49  A    between atoms: _119  and  _120
REMARK   50  A    between atoms: _119  and  _122
REMARK   51  A    between atoms: _125  and  _127
REMARK   52  A    between atoms: _127  and  _128
REMARK   53  A    between atoms: _127  and  _130
REMARK   54  A    between atoms: _130  and  _131
REMARK   55  A    between atoms: _133  and  _135
REMARK   56  A    between atoms: _135  and  _136
REMARK   57  A    between atoms: _135  and  _138
REMARK   58  A    between atoms: _138  and  _139
REMARK   59  A    between atoms: _139  and  _140
REMARK   60  A    between atoms: _143  and  _145
REMARK   61  A    between atoms: _145  and  _146
REMARK   62  A    between atoms: _145  and  _148
REMARK   63  A    between atoms: _148  and  _149
REMARK   64  A    between atoms: _149  and  _150
REMARK   65  A    between atoms: _155  and  _157
REMARK   66  A    between atoms: _157  and  _158
REMARK   67  A    between atoms: _157  and  _160
REMARK   68  A    between atoms: _160  and  _161
REMARK   69  A    between atoms: _166  and  _167
REMARK   70  A    between atoms: _169  and  _171
REMARK   71  A    between atoms: _171  and  _172
REMARK   72  A    between atoms: _175  and  _177
REMARK   73  A    between atoms: _177  and  _178
REMARK   74  A    between atoms: _177  and  _180
REMARK   75  A    between atoms: _180  and  _181
REMARK   76  A    between atoms: _184  and  _186
REMARK   77  A    between atoms: _186  and  _187
REMARK   78  A    between atoms: _186  and  _189
REMARK   79  A    between atoms: _189  and  _190
REMARK   80  A    between atoms: _200  and  _202
REMARK   81  A    between atoms: _202  and  _203
REMARK   82  A    between atoms: _202  and  _205
REMARK   83  A    between atoms: _205  and  _206
REMARK   84  A    between atoms: _206  and  _207
REMARK   85  A    between atoms: _210  and  _212
REMARK   86  A    between atoms: _212  and  _213
REMARK   87  A    between atoms: _212  and  _215
REMARK   88  A    between atoms: _215  and  _216
REMARK   89  A    between atoms: _222  and  _224
REMARK   90  A    between atoms: _224  and  _225
REMARK   91  A    between atoms: _224  and  _227
REMARK   92  A    between atoms: _227  and  _228
REMARK   93  A    between atoms: _234  and  _236
REMARK   94  A    between atoms: _236  and  _237
REMARK   95  A    between atoms: _236  and  _239
REMARK   96  A    between atoms: _239  and  _240
REMARK   97  A    between atoms: _243  and  _245
REMARK   98  A    between atoms: _245  and  _246
REMARK   99  A    between atoms: _245  and  _248
REMARK  100  A    between atoms: _248  and  _249
REMARK  101  A    between atoms: _252  and  _253
REMARK  102  A    between atoms: _258  and  _260
REMARK  103  A    between atoms: _260  and  _261
REMARK  104  A    between atoms: _260  and  _263
REMARK  105  A    between atoms: _263  and  _264
REMARK  106  A    between atoms: _267  and  _269
REMARK  107  A    between atoms: _269  and  _270
REMARK  108  A    between atoms: _269  and  _272
REMARK  109  A    between atoms: _272  and  _273
REMARK  110  A    between atoms: _273  and  _274
REMARK  111  A    between atoms: _274  and  _275
REMARK  112  A    between atoms: _275  and  _276
REMARK  113  A    between atoms: _280  and  _282
REMARK  114  A    between atoms: _282  and  _283
REMARK  115  A    between atoms: _282  and  _285
REMARK  116  A    between atoms: _285  and  _286
REMARK  117  A    between atoms: _286  and  _287
REMARK  118  A    between atoms: _289  and  _291
REMARK  119  A    between atoms: _291  and  _292
REMARK  120  A    between atoms: _291  and  _294
REMARK  121  A    between atoms: _294  and  _295
REMARK  122  A    between atoms: _301  and  _303
REMARK  123  A    between atoms: _303  and  _304
REMARK  124  A    between atoms: _303  and  _306
REMARK  125  A    between atoms: _308  and  _310
REMARK  126  A    between atoms: _310  and  _311
REMARK  127  A    between atoms: _310  and  _313
REMARK  128  A    between atoms: _313  and  _314
REMARK  129  A    between atoms: _314  and  _315
REMARK  130  A    between atoms: _315  and  _316
REMARK  131  A    between atoms: _316  and  _317
REMARK  132  A    between atoms: _321  and  _323
REMARK  133  A    between atoms: _323  and  _324
REMARK  134  A    between atoms: _323  and  _326
REMARK  135  A    between atoms: _326  and  _327
REMARK  136  A    between atoms: _330  and  _332
REMARK  137  A    between atoms: _332  and  _333
REMARK  138  A    between atoms: _332  and  _335
REMARK  139  A    between atoms: _335  and  _336
REMARK  140  A    between atoms: _336  and  _337
REMARK  141  A    between atoms: _337  and  _338
REMARK  142  A    between atoms: _347  and  _349
REMARK  143  A    between atoms: _349  and  _350
REMARK  144  A    between atoms: _349  and  _352
REMARK  145  A    between atoms: _352  and  _353
REMARK  146  A    between atoms: _356  and  _358
REMARK  147  A    between atoms: _358  and  _359
REMARK  148  A    between atoms: _358  and  _361
REMARK  149  A    between atoms: _361  and  _362
REMARK  150  A    between atoms: _362  and  _363
REMARK  151  A    between atoms: _363  and  _364
REMARK  152  A    between atoms: _364  and  _365
REMARK  153  A    between atoms: _369  and  _371
REMARK  154  A    between atoms: _371  and  _372
REMARK  155  A    between atoms: _371  and  _374
REMARK  156  A    between atoms: _374  and  _375
REMARK  157  A    between atoms: _378  and  _380
REMARK  158  A    between atoms: _380  and  _381
REMARK  159  A    between atoms: _380  and  _383
REMARK  160  A    between atoms: _383  and  _384
REMARK  161  A    between atoms: _384  and  _385
REMARK  162  A    between atoms: _385  and  MG_421
REMARK  163  A    between atoms: _387  and  _389
REMARK  164  A    between atoms: _389  and  _390
REMARK  165  A    between atoms: _389  and  _392
REMARK  166  A    between atoms: _392  and  _393
REMARK  167  A    between atoms: _393  and  _394
REMARK  168  A    between atoms: _394  and  _395
REMARK  169  A    between atoms: _404  and  _406
REMARK  170  A    between atoms: _406  and  _407
REMARK  171  A    between atoms: _410  and  _412
REMARK  172  A    between atoms: _412  and  _413
REMARK  173  A    between atoms: _412  and  _415
REMARK  174  A    between atoms: _415  and  _416
REMARK                            x       y       z     vdW  Elec       q    Type
REMARK                         _______ _______ _______ _____ _____    ______ ____
ROOT
ATOM      1  CA  CYS A   1      13.614  51.215  27.554  0.00  0.00    +0.145 C 
ENDROOT
BRANCH   1   2
ATOM      2  N   CYS A   1      12.909  52.309  26.906  0.00  0.00    -0.238 NA
ATOM      3  H   CYS A   1      12.465  52.150  25.979  0.00  0.00    +0.142 HD
ENDBRANCH   1   2
BRANCH   1   4
ATOM      4  C   CYS A   1      15.021  51.499  28.085  0.00  0.00    +0.225 C 
ATOM      5  O   CYS A   1      15.259  51.373  29.290  0.00  0.00    -0.287 OA
ENDBRANCH   1   4
BRANCH   1   6
ATOM      6  CB  CYS A   1      13.615  49.991  26.637  0.00  0.00    +0.094 C 
ATOM      7  SG  CYS A   1      14.352  48.536  27.380  0.00  0.00    -0.080 S 
ENDBRANCH   1   6
TORSDOF 3
REMARK  Name = ../refined-set-2016/1q91/1q91_pocket.pdb
REMARK  174 active torsions:
REMARK  status: ('A' for Active; 'I' for Inactive)
REMARK    1  A    between atoms: _1  and  _3
REMARK    2  A    between atoms: _3  and  _4
REMARK    3  A    between atoms: _3  and  _6
REMARK    4  A    between atoms: _6  and  _7
REMARK    5  A    between atoms: _10  and  _12
REMARK    6  A    between atoms: _12  and  _13
REMARK    7  A    between atoms: _12  and  _15
REMARK    8  A    between atoms: _15  and  _16
REMARK    9  A    between atoms: _16  and  _17
REMARK   10  A    between atoms: _19  and  _21
REMARK   11  A    between atoms: _21  and  _22
REMARK   12  A    between atoms: _21  and  _24
REMARK   13  A    between atoms: _22  and  _23
REMARK   14  A    between atoms: _22  and  _28
REMARK   15  A    between atoms: _23  and  MG_421
REMARK   16  A    between atoms: _24  and  _25
REMARK   17  A    between atoms: _28  and  _30
REMARK   18  A    between atoms: _30  and  _31
REMARK   19  A    between atoms: _33  and  _35
REMARK   20  A    between atoms: _35  and  _36
REMARK   21  A    between atoms: _35  and  _38
REMARK   22  A    between atoms: _38  and  _39
REMARK   23  A    between atoms: _45  and  _47
REMARK   24  A    between atoms: _47  and  _48
REMARK   25  A    between atoms: _47  and  _50
REMARK   26  A    between atoms: _50  and  _51
REMARK   27  A    between atoms: _51  and  _52
REMARK   28  A    between atoms: _55  and  _57
REMARK   29  A    between atoms: _57  and  _58
REMARK   30  A    between atoms: _57  and  _60
REMARK   31  A    between atoms: _60  and  _61
REMARK   32  A    between atoms: _67  and  _69
REMARK   33  A    between atoms: _69  and  _70
REMARK   34  A    between atoms: _69  and  _72
REMARK   35  A    between atoms: _72  and  _73
REMARK   36  A    between atoms: _73  and  _74
REMARK   37  A    between atoms: _74  and  _75
REMARK   38  A    between atoms: _84  and  _86
REMARK   39  A    between atoms: _86  and  _87
REMARK   40  A    between atoms: _89  and  _91
REMARK   41  A    between atoms: _91  and  _92
REMARK   42  A    between atoms: _91  and  _94
REMARK   43  A    between atoms: _94  and  _95
REMARK   44  A    between atoms: _101  and  _103
REMARK   45  A    between atoms: _103  and  _104
REMARK   46  A    between atoms: _103  and  _106
REMARK   47  A    between atoms: _106  and  _107
REMARK   48  A    between atoms: _117  and  _119
REMARK   49  A    between atoms: _119  and  _120
REMARK   50  A    between atoms: _119  and  _122
REMARK   51  A    between atoms: _125  and  _127
REMARK   52  A    between atoms: _127  and  _128
REMARK   53  A    between atoms: _127  and  _130
REMARK   54  A    between atoms: _130  and  _131
REMARK   55  A    between atoms: _133  and  _135
REMARK   56  A    between atoms: _135  and  _136
REMARK   57  A    between atoms: _135  and  _138
REMARK   58  A    between atoms: _138  and  _139
REMARK   59  A    between atoms: _139  and  _140
REMARK   60  A    between atoms: _143  and  _145
REMARK   61  A    between atoms: _145  and  _146
REMARK   62  A    between atoms: _145  and  _148
REMARK   63  A    between atoms: _148  and  _149
REMARK   64  A    between atoms: _149  and  _150
REMARK   65  A    between atoms: _155  and  _157
REMARK   66  A    between atoms: _157  and  _158
REMARK   67  A    between atoms: _157  and  _160
REMARK   68  A    between atoms: _160  and  _161
REMARK   69  A    between atoms: _166  and  _167
REMARK   70  A    between atoms: _169  and  _171
REMARK   71  A    between atoms: _171  and  _172
REMARK   72  A    between atoms: _175  and  _177
REMARK   73  A    between atoms: _177  and  _178
REMARK   74  A    between atoms: _177  and  _180
REMARK   75  A    between atoms: _180  and  _181
REMARK   76  A    between atoms: _184  and  _186
REMARK   77  A    between atoms: _186  and  _187
REMARK   78  A    between atoms: _186  and  _189
REMARK   79  A    between atoms: _189  and  _190
REMARK   80  A    between atoms: _200  and  _202
REMARK   81  A    between atoms: _202  and  _203
REMARK   82  A    between atoms: _202  and  _205
REMARK   83  A    between atoms: _205  and  _206
REMARK   84  A    between atoms: _206  and  _207
REMARK   85  A    between atoms: _210  and  _212
REMARK   86  A    between atoms: _212  and  _213
REMARK   87  A    between atoms: _212  and  _215
REMARK   88  A    between atoms: _215  and  _216
REMARK   89  A    between atoms: _222  and  _224
REMARK   90  A    between atoms: _224  and  _225
REMARK   91  A    between atoms: _224  and  _227
REMARK   92  A    between atoms: _227  and  _228
REMARK   93  A    between atoms: _234  and  _236
REMARK   94  A    between atoms: _236  and  _237
REMARK   95  A    between atoms: _236  and  _239
REMARK   96  A    between atoms: _239  and  _240
REMARK   97  A    between atoms: _243  and  _245
REMARK   98  A    between atoms: _245  and  _246
REMARK   99  A    between atoms: _245  and  _248
REMARK  100  A    between atoms: _248  and  _249
REMARK  101  A    between atoms: _252  and  _253
REMARK  102  A    between atoms: _258  and  _260
REMARK  103  A    between atoms: _260  and  _261
REMARK  104  A    between atoms: _260  and  _263
REMARK  105  A    between atoms: _263  and  _264
REMARK  106  A    between atoms: _267  and  _269
REMARK  107  A    between atoms: _269  and  _270
REMARK  108  A    between atoms: _269  and  _272
REMARK  109  A    between atoms: _272  and  _273
REMARK  110  A    between atoms: _273  and  _274
REMARK  111  A    between atoms: _274  and  _275
REMARK  112  A    between atoms: _275  and  _276
REMARK  113  A    between atoms: _280  and  _282
REMARK  114  A    between atoms: _282  and  _283
REMARK  115  A    between atoms: _282  and  _285
REMARK  116  A    between atoms: _285  and  _286
REMARK  117  A    between atoms: _286  and  _287
REMARK  118  A    between atoms: _289  and  _291
REMARK  119  A    between atoms: _291  and  _292
REMARK  120  A    between atoms: _291  and  _294
REMARK  121  A    between atoms: _294  and  _295
REMARK  122  A    between atoms: _301  and  _303
REMARK  123  A    between atoms: _303  and  _304
REMARK  124  A    between atoms: _303  and  _306
REMARK  125  A    between atoms: _308  and  _310
REMARK  126  A    between atoms: _310  and  _311
REMARK  127  A    between atoms: _310  and  _313
REMARK  128  A    between atoms: _313  and  _314
REMARK  129  A    between atoms: _314  and  _315
REMARK  130  A    between atoms: _315  and  _316
REMARK  131  A    between atoms: _316  and  _317
REMARK  132  A    between atoms: _321  and  _323
REMARK  133  A    between atoms: _323  and  _324
REMARK  134  A    between atoms: _323  and  _326
REMARK  135  A    between atoms: _326  and  _327
REMARK  136  A    between atoms: _330  and  _332
REMARK  137  A    between atoms: _332  and  _333
REMARK  138  A    between atoms: _332  and  _335
REMARK  139  A    between atoms: _335  and  _336
REMARK  140  A    between atoms: _336  and  _337
REMARK  141  A    between atoms: _337  and  _338
REMARK  142  A    between atoms: _347  and  _349
REMARK  143  A    between atoms: _349  and  _350
REMARK  144  A    between atoms: _349  and  _352
REMARK  145  A    between atoms: _352  and  _353
REMARK  146  A    between atoms: _356  and  _358
REMARK  147  A    between atoms: _358  and  _359
REMARK  148  A    between atoms: _358  and  _361
REMARK  149  A    between atoms: _361  and  _362
REMARK  150  A    between atoms: _362  and  _363
REMARK  151  A    between atoms: _363  and  _364
REMARK  152  A    between atoms: _364  and  _365
REMARK  153  A    between atoms: _369  and  _371
REMARK  154  A    between atoms: _371  and  _372
REMARK  155  A    between atoms: _371  and  _374
REMARK  156  A    between atoms: _374  and  _375
REMARK  157  A    between atoms: _378  and  _380
REMARK  158  A    between atoms: _380  and  _381
REMARK  159  A    between atoms: _380  and  _383
REMARK  160  A    between atoms: _383  and  _384
REMARK  161  A    between atoms: _384  and  _385
REMARK  162  A    between atoms: _385  and  MG_421
REMARK  163  A    between atoms: _387  and  _389
REMARK  164  A    between atoms: _389  and  _390
REMARK  165  A    between atoms: _389  and  _392
REMARK  166  A    between atoms: _392  and  _393
REMARK  167  A    between atoms: _393  and  _394
REMARK  168  A    between atoms: _394  and  _395
REMARK  169  A    between atoms: _404  and  _406
REMARK  170  A    between atoms: _406  and  _407
REMARK  171  A    between atoms: _410  and  _412
REMARK  172  A    between atoms: _412  and  _413
REMARK  173  A    between atoms: _412  and  _415
REMARK  174  A    between atoms: _415  and  _416
REMARK                            x       y       z     vdW  Elec       q    Type
REMARK                         _______ _______ _______ _____ _____    ______ ____
ROOT
ATOM      1  CG  LYS A   1      16.300  48.789  31.347  0.00  0.00    -0.000 C 
ENDROOT
BRANCH   1   2
ATOM      2  CB  LYS A   1      17.299  49.866  31.784  0.00  0.00    +0.025 C 
BRANCH   2   3
ATOM      3  CA  LYS A   1      16.697  50.850  32.797  0.00  0.00    +0.133 C 
BRANCH   3   4
ATOM      4  N   LYS A   1      15.856  51.835  32.122  0.00  0.00    -0.239 NA
ATOM      5  H   LYS A   1      15.878  51.916  31.085  0.00  0.00    +0.142 HD
ENDBRANCH   3   4
BRANCH   3   6
ATOM      6  C   LYS A   1      17.790  51.572  33.598  0.00  0.00    +0.224 C 
ATOM      7  O   LYS A   1      18.091  51.185  34.732  0.00  0.00    -0.287 OA
ENDBRANCH   3   6
ENDBRANCH   2   3
ENDBRANCH   1   2
BRANCH   1   8
ATOM      8  CD  LYS A   1      16.852  47.891  30.256  0.00  0.00    -0.024 C 
BRANCH   8   9
ATOM      9  CE  LYS A   1      15.912  46.723  29.975  0.00  0.00    -0.086 C 
BRANCH   9  10
ATOM     10  NZ  LYS A   1      15.878  45.756  31.123  0.00  0.00    +0.380 N 
ATOM     11  HZ1 LYS A   1      15.548  46.247  31.978  0.00  0.00    -0.089 HD
ATOM     12  HZ2 LYS A   1      16.833  45.379  31.285  0.00  0.00    -0.089 HD
ATOM     13  HZ3 LYS A   1      15.229  44.975  30.898  0.00  0.00    -0.089 HD
ENDBRANCH   9  10
ENDBRANCH   8   9
ENDBRANCH   1   8
TORSDOF 7
REMARK  Name = ../refined-set-2016/1q91/1q91_pocket.pdb
REMARK  174 active torsions:
REMARK  status: ('A' for Active; 'I' for Inactive)
REMARK    1  A    between atoms: _1  and  _3
REMARK    2  A    between atoms: _3  and  _4
REMARK    3  A    between atoms: _3  and  _6
REMARK    4  A    between atoms: _6  and  _7
REMARK    5  A    between atoms: _10  and  _12
REMARK    6  A    between atoms: _12  and  _13
REMARK    7  A    between atoms: _12  and  _15
REMARK    8  A    between atoms: _15  and  _16
REMARK    9  A    between atoms: _16  and  _17
REMARK   10  A    between atoms: _19  and  _21
REMARK   11  A    between atoms: _21  and  _22
REMARK   12  A    between atoms: _21  and  _24
REMARK   13  A    between atoms: _22  and  _23
REMARK   14  A    between atoms: _22  and  _28
REMARK   15  A    between atoms: _23  and  MG_421
REMARK   16  A    between atoms: _24  and  _25
REMARK   17  A    between atoms: _28  and  _30
REMARK   18  A    between atoms: _30  and  _31
REMARK   19  A    between atoms: _33  and  _35
REMARK   20  A    between atoms: _35  and  _36
REMARK   21  A    between atoms: _35  and  _38
REMARK   22  A    between atoms: _38  and  _39
REMARK   23  A    between atoms: _45  and  _47
REMARK   24  A    between atoms: _47  and  _48
REMARK   25  A    between atoms: _47  and  _50
REMARK   26  A    between atoms: _50  and  _51
REMARK   27  A    between atoms: _51  and  _52
REMARK   28  A    between atoms: _55  and  _57
REMARK   29  A    between atoms: _57  and  _58
REMARK   30  A    between atoms: _57  and  _60
REMARK   31  A    between atoms: _60  and  _61
REMARK   32  A    between atoms: _67  and  _69
REMARK   33  A    between atoms: _69  and  _70
REMARK   34  A    between atoms: _69  and  _72
REMARK   35  A    between atoms: _72  and  _73
REMARK   36  A    between atoms: _73  and  _74
REMARK   37  A    between atoms: _74  and  _75
REMARK   38  A    between atoms: _84  and  _86
REMARK   39  A    between atoms: _86  and  _87
REMARK   40  A    between atoms: _89  and  _91
REMARK   41  A    between atoms: _91  and  _92
REMARK   42  A    between atoms: _91  and  _94
REMARK   43  A    between atoms: _94  and  _95
REMARK   44  A    between atoms: _101  and  _103
REMARK   45  A    between atoms: _103  and  _104
REMARK   46  A    between atoms: _103  and  _106
REMARK   47  A    between atoms: _106  and  _107
REMARK   48  A    between atoms: _117  and  _119
REMARK   49  A    between atoms: _119  and  _120
REMARK   50  A    between atoms: _119  and  _122
REMARK   51  A    between atoms: _125  and  _127
REMARK   52  A    between atoms: _127  and  _128
REMARK   53  A    between atoms: _127  and  _130
REMARK   54  A    between atoms: _130  and  _131
REMARK   55  A    between atoms: _133  and  _135
REMARK   56  A    between atoms: _135  and  _136
REMARK   57  A    between atoms: _135  and  _138
REMARK   58  A    between atoms: _138  and  _139
REMARK   59  A    between atoms: _139  and  _140
REMARK   60  A    between atoms: _143  and  _145
REMARK   61  A    between atoms: _145  and  _146
REMARK   62  A    between atoms: _145  and  _148
REMARK   63  A    between atoms: _148  and  _149
REMARK   64  A    between atoms: _149  and  _150
REMARK   65  A    between atoms: _155  and  _157
REMARK   66  A    between atoms: _157  and  _158
REMARK   67  A    between atoms: _157  and  _160
REMARK   68  A    between atoms: _160  and  _161
REMARK   69  A    between atoms: _166  and  _167
REMARK   70  A    between atoms: _169  and  _171
REMARK   71  A    between atoms: _171  and  _172
REMARK   72  A    between atoms: _175  and  _177
REMARK   73  A    between atoms: _177  and  _178
REMARK   74  A    between atoms: _177  and  _180
REMARK   75  A    between atoms: _180  and  _181
REMARK   76  A    between atoms: _184  and  _186
REMARK   77  A    between atoms: _186  and  _187
REMARK   78  A    between atoms: _186  and  _189
REMARK   79  A    between atoms: _189  and  _190
REMARK   80  A    between atoms: _200  and  _202
REMARK   81  A    between atoms: _202  and  _203
REMARK   82  A    between atoms: _202  and  _205
REMARK   83  A    between atoms: _205  and  _206
REMARK   84  A    between atoms: _206  and  _207
REMARK   85  A    between atoms: _210  and  _212
REMARK   86  A    between atoms: _212  and  _213
REMARK   87  A    between atoms: _212  and  _215
REMARK   88  A    between atoms: _215  and  _216
REMARK   89  A    between atoms: _222  and  _224
REMARK   90  A    between atoms: _224  and  _225
REMARK   91  A    between atoms: _224  and  _227
REMARK   92  A    between atoms: _227  and  _228
REMARK   93  A    between atoms: _234  and  _236
REMARK   94  A    between atoms: _236  and  _237
REMARK   95  A    between atoms: _236  and  _239
REMARK   96  A    between atoms: _239  and  _240
REMARK   97  A    between atoms: _243  and  _245
REMARK   98  A    between atoms: _245  and  _246
REMARK   99  A    between atoms: _245  and  _248
REMARK  100  A    between atoms: _248  and  _249
REMARK  101  A    between atoms: _252  and  _253
REMARK  102  A    between atoms: _258  and  _260
REMARK  103  A    between atoms: _260  and  _261
REMARK  104  A    between atoms: _260  and  _263
REMARK  105  A    between atoms: _263  and  _264
REMARK  106  A    between atoms: _267  and  _269
REMARK  107  A    between atoms: _269  and  _270
REMARK  108  A    between atoms: _269  and  _272
REMARK  109  A    between atoms: _272  and  _273
REMARK  110  A    between atoms: _273  and  _274
REMARK  111  A    between atoms: _274  and  _275
REMARK  112  A    between atoms: _275  and  _276
REMARK  113  A    between atoms: _280  and  _282
REMARK  114  A    between atoms: _282  and  _283
REMARK  115  A    between atoms: _282  and  _285
REMARK  116  A    between atoms: _285  and  _286
REMARK  117  A    between atoms: _286  and  _287
REMARK  118  A    between atoms: _289  and  _291
REMARK  119  A    between atoms: _291  and  _292
REMARK  120  A    between atoms: _291  and  _294
REMARK  121  A    between atoms: _294  and  _295
REMARK  122  A    between atoms: _301  and  _303
REMARK  123  A    between atoms: _303  and  _304
REMARK  124  A    between atoms: _303  and  _306
REMARK  125  A    between atoms: _308  and  _310
REMARK  126  A    between atoms: _310  and  _311
REMARK  127  A    between atoms: _310  and  _313
REMARK  128  A    between atoms: _313  and  _314
REMARK  129  A    between atoms: _314  and  _315
REMARK  130  A    between atoms: _315  and  _316
REMARK  131  A    between atoms: _316  and  _317
REMARK  132  A    between atoms: _321  and  _323
REMARK  133  A    between atoms: _323  and  _324
REMARK  134  A    between atoms: _323  and  _326
REMARK  135  A    between atoms: _326  and  _327
REMARK  136  A    between atoms: _330  and  _332
REMARK  137  A    between atoms: _332  and  _333
REMARK  138  A    between atoms: _332  and  _335
REMARK  139  A    between atoms: _335  and  _336
REMARK  140  A    between atoms: _336  and  _337
REMARK  141  A    between atoms: _337  and  _338
REMARK  142  A    between atoms: _347  and  _349
REMARK  143  A    between atoms: _349  and  _350
REMARK  144  A    between atoms: _349  and  _352
REMARK  145  A    between atoms: _352  and  _353
REMARK  146  A    between atoms: _356  and  _358
REMARK  147  A    between atoms: _358  and  _359
REMARK  148  A    between atoms: _358  and  _361
REMARK  149  A    between atoms: _361  and  _362
REMARK  150  A    between atoms: _362  and  _363
REMARK  151  A    between atoms: _363  and  _364
REMARK  152  A    between atoms: _364  and  _365
REMARK  153  A    between atoms: _369  and  _371
REMARK  154  A    between atoms: _371  and  _372
REMARK  155  A    between atoms: _371  and  _374
REMARK  156  A    between atoms: _374  and  _375
REMARK  157  A    between atoms: _378  and  _380
REMARK  158  A    between atoms: _380  and  _381
REMARK  159  A    between atoms: _380  and  _383
REMARK  160  A    between atoms: _383  and  _384
REMARK  161  A    between atoms: _384  and  _385
REMARK  162  A    between atoms: _385  and  MG_421
REMARK  163  A    between atoms: _387  and  _389
REMARK  164  A    between atoms: _389  and  _390
REMARK  165  A    between atoms: _389  and  _392
REMARK  166  A    between atoms: _392  and  _393
REMARK  167  A    between atoms: _393  and  _394
REMARK  168  A    between atoms: _394  and  _395
REMARK  169  A    between atoms: _404  and  _406
REMARK  170  A    between atoms: _406  and  _407
REMARK  171  A    between atoms: _410  and  _412
REMARK  172  A    between atoms: _412  and  _413
REMARK  173  A    between atoms: _412  and  _415
REMARK  174  A    between atoms: _415  and  _416
REMARK                            x       y       z     vdW  Elec       q    Type
REMARK                         _______ _______ _______ _____ _____    ______ ____
ROOT
ATOM      1  CA  ARG A   2      21.355  42.127  22.857  0.00  0.00    +0.149 C 
ENDROOT
BRANCH   1   4
ATOM      2  C   THR A   1      22.524  43.410  24.529  0.00  0.00    +0.241 C 
ATOM      3  O   THR A   1      21.934  42.817  25.430  0.00  0.00    -0.274 OA
ATOM      4  N   ARG A   2      22.296  43.169  23.242  0.00  0.00    -0.297 N 
ATOM      5  H   ARG A   2      22.788  43.723  22.512  0.00  0.00    +0.150 HD
BRANCH   2   6
ATOM      6  CA  THR A   1      23.555  44.476  24.855  0.00  0.00    +0.172 C 
BRANCH   6   7
ATOM      7  CB  THR A   1      24.932  43.788  25.029  0.00  0.00    +0.135 C 
ATOM      8  CG2 THR A   1      24.907  42.825  26.223  0.00  0.00    +0.034 C 
BRANCH   7   9
ATOM      9  OG1 THR A   1      25.257  43.053  23.842  0.00  0.00    -0.383 OA
ATOM     10  HG1 THR A   1      26.137  42.615  23.957  0.00  0.00    +0.210 HD
ENDBRANCH   7   9
ENDBRANCH   6   7
BRANCH   6  11
ATOM     11  N   THR A   1      23.185  45.206  26.062  0.00  0.00    -0.236 NA
ATOM     12  H   THR A   1      22.474  44.807  26.708  0.00  0.00    +0.142 HD
ENDBRANCH   6  11
ENDBRANCH   2   6
ENDBRANCH   1   4
BRANCH   1  13
ATOM     13  C   ARG A   2      22.117  40.825  22.621  0.00  0.00    +0.241 C 
ATOM     14  N   ASP A   3      23.429  40.885  22.840  0.00  0.00    -0.297 N 
ATOM     15  H   ASP A   3      23.850  41.796  23.113  0.00  0.00    +0.150 HD
ATOM     16  O   ARG A   2      21.536  39.797  22.265  0.00  0.00    -0.273 OA
BRANCH  14  17
ATOM     17  CA  ASP A   3      24.298  39.720  22.711  0.00  0.00    +0.160 C 
BRANCH  17  18
ATOM     18  C   ASP A   3      25.168  39.645  23.966  0.00  0.00    +0.241 C 
ATOM     19  N   LYS A   4      24.807  38.757  24.884  0.00  0.00    -0.298 N 
ATOM     20  H   LYS A   4      23.976  38.154  24.715  0.00  0.00    +0.150 HD
ATOM     21  O   ASP A   3      26.148  40.378  24.105  0.00  0.00    -0.273 OA
BRANCH  19  22
ATOM     22  CA  LYS A   4      25.556  38.615  26.122  0.00  0.00    +0.137 C 
BRANCH  22  23
ATOM     23  C   LYS A   4      26.755  37.678  26.001  0.00  0.00    +0.227 C 
ATOM     24  O   LYS A   4      27.611  37.647  26.885  0.00  0.00    -0.286 OA
ENDBRANCH  22  23
BRANCH  22  25
ATOM     25  CB  LYS A   4      24.610  38.154  27.238  0.00  0.00    +0.028 C 
BRANCH  25  26
ATOM     26  CG  LYS A   4      23.397  39.071  27.382  0.00  0.00    -0.000 C 
BRANCH  26  27
ATOM     27  CD  LYS A   4      22.547  38.758  28.605  0.00  0.00    -0.024 C 
BRANCH  27  28
ATOM     28  CE  LYS A   4      21.355  39.711  28.690  0.00  0.00    -0.086 C 
BRANCH  28  29
ATOM     29  NZ  LYS A   4      20.580  39.535  29.957  0.00  0.00    +0.380 N 
ATOM     30  HZ1 LYS A   4      21.201  39.720  30.770  0.00  0.00    -0.089 HD
ATOM     31  HZ2 LYS A   4      20.220  38.561  30.009  0.00  0.00    -0.089 HD
ATOM     32  HZ3 LYS A   4      19.782  40.202  29.969  0.00  0.00    -0.089 HD
ENDBRANCH  28  29
ENDBRANCH  27  28
ENDBRANCH  26  27
ENDBRANCH  25  26
ENDBRANCH  22  25
ENDBRANCH  19  22
ENDBRANCH  17  18
BRANCH  17  33
ATOM     33  CB  ASP A   3      25.197  39.825  21.476  0.00  0.00    +0.143 C 
BRANCH  33  34
ATOM     34  CG  ASP A   3      25.965  38.539  21.212  0.00  0.00    +0.367 C 
ATOM     35  OD2 ASP A   3      26.194  37.773  22.175  0.00  0.00    -0.246 OA
ATOM     36  OD1 ASP A   3      26.351  38.295  20.048  0.00  0.00    -0.246 OA
ENDBRANCH  33  34
ENDBRANCH  17  33
ENDBRANCH  14  17
ENDBRANCH   1  13
BRANCH   1  37
ATOM     37  CB  ARG A   2      20.543  42.558  21.630  0.00  0.00    +0.033 C 
BRANCH  37  38
ATOM     38  CG  ARG A   2      19.424  43.536  22.026  0.00  0.00    +0.045 C 
BRANCH  38  39
ATOM     39  CD  ARG A   2      18.634  44.073  20.850  0.00  0.00    +0.174 C 
BRANCH  39  40
ATOM     40  NE  ARG A   2      17.778  43.078  20.204  0.00  0.00    -0.265 N 
ATOM     41  CZ  ARG A   2      16.483  42.912  20.461  0.00  0.00    +0.342 C 
ATOM     42  NH2 ARG A   2      15.876  43.668  21.367  0.00  0.00    -0.292 N 
ATOM     43 HH21 ARG A   2      16.413  44.396  21.881  0.00  0.00    +0.255 HD
ATOM     44 HH22 ARG A   2      14.864  43.533  21.563  0.00  0.00    +0.255 HD
ATOM     45  NH1 ARG A   2      15.782  42.016  19.777  0.00  0.00    -0.292 N 
ATOM     46 HH11 ARG A   2      14.770  41.885  19.977  0.00  0.00    +0.255 HD
ATOM     47 HH12 ARG A   2      16.245  41.445  19.041  0.00  0.00    +0.255 HD
ATOM     48  HE  ARG A   2      18.213  42.456  19.493  0.00  0.00    +0.259 HD
ENDBRANCH  39  40
ENDBRANCH  38  39
ENDBRANCH  37  38
ENDBRANCH   1  37
TORSDOF 21
REMARK  Name = ../refined-set-2016/1q91/1q91_pocket.pdb
REMARK  174 active torsions:
REMARK  status: ('A' for Active; 'I' for Inactive)
REMARK    1  A    between atoms: _1  and  _3
REMARK    2  A    between atoms: _3  and  _4
REMARK    3  A    between atoms: _3  and  _6
REMARK    4  A    between atoms: _6  and  _7
REMARK    5  A    between atoms: _10  and  _12
REMARK    6  A    between atoms: _12  and  _13
REMARK    7  A    between atoms: _12  and  _15
REMARK    8  A    between atoms: _15  and  _16
REMARK    9  A    between atoms: _16  and  _17
REMARK   10  A    between atoms: _19  and  _21
REMARK   11  A    between atoms: _21  and  _22
REMARK   12  A    between atoms: _21  and  _24
REMARK   13  A    between atoms: _22  and  _23
REMARK   14  A    between atoms: _22  and  _28
REMARK   15  A    between atoms: _23  and  MG_421
REMARK   16  A    between atoms: _24  and  _25
REMARK   17  A    between atoms: _28  and  _30
REMARK   18  A    between atoms: _30  and  _31
REMARK   19  A    between atoms: _33  and  _35
REMARK   20  A    between atoms: _35  and  _36
REMARK   21  A    between atoms: _35  and  _38
REMARK   22  A    between atoms: _38  and  _39
REMARK   23  A    between atoms: _45  and  _47
REMARK   24  A    between atoms: _47  and  _48
REMARK   25  A    between atoms: _47  and  _50
REMARK   26  A    between atoms: _50  and  _51
REMARK   27  A    between atoms: _51  and  _52
REMARK   28  A    between atoms: _55  and  _57
REMARK   29  A    between atoms: _57  and  _58
REMARK   30  A    between atoms: _57  and  _60
REMARK   31  A    between atoms: _60  and  _61
REMARK   32  A    between atoms: _67  and  _69
REMARK   33  A    between atoms: _69  and  _70
REMARK   34  A    between atoms: _69  and  _72
REMARK   35  A    between atoms: _72  and  _73
REMARK   36  A    between atoms: _73  and  _74
REMARK   37  A    between atoms: _74  and  _75
REMARK   38  A    between atoms: _84  and  _86
REMARK   39  A    between atoms: _86  and  _87
REMARK   40  A    between atoms: _89  and  _91
REMARK   41  A    between atoms: _91  and  _92
REMARK   42  A    between atoms: _91  and  _94
REMARK   43  A    between atoms: _94  and  _95
REMARK   44  A    between atoms: _101  and  _103
REMARK   45  A    between atoms: _103  and  _104
REMARK   46  A    between atoms: _103  and  _106
REMARK   47  A    between atoms: _106  and  _107
REMARK   48  A    between atoms: _117  and  _119
REMARK   49  A    between atoms: _119  and  _120
REMARK   50  A    between atoms: _119  and  _122
REMARK   51  A    between atoms: _125  and  _127
REMARK   52  A    between atoms: _127  and  _128
REMARK   53  A    between atoms: _127  and  _130
REMARK   54  A    between atoms: _130  and  _131
REMARK   55  A    between atoms: _133  and  _135
REMARK   56  A    between atoms: _135  and  _136
REMARK   57  A    between atoms: _135  and  _138
REMARK   58  A    between atoms: _138  and  _139
REMARK   59  A    between atoms: _139  and  _140
REMARK   60  A    between atoms: _143  and  _145
REMARK   61  A    between atoms: _145  and  _146
REMARK   62  A    between atoms: _145  and  _148
REMARK   63  A    between atoms: _148  and  _149
REMARK   64  A    between atoms: _149  and  _150
REMARK   65  A    between atoms: _155  and  _157
REMARK   66  A    between atoms: _157  and  _158
REMARK   67  A    between atoms: _157  and  _160
REMARK   68  A    between atoms: _160  and  _161
REMARK   69  A    between atoms: _166  and  _167
REMARK   70  A    between atoms: _169  and  _171
REMARK   71  A    between atoms: _171  and  _172
REMARK   72  A    between atoms: _175  and  _177
REMARK   73  A    between atoms: _177  and  _178
REMARK   74  A    between atoms: _177  and  _180
REMARK   75  A    between atoms: _180  and  _181
REMARK   76  A    between atoms: _184  and  _186
REMARK   77  A    between atoms: _186  and  _187
REMARK   78  A    between atoms: _186  and  _189
REMARK   79  A    between atoms: _189  and  _190
REMARK   80  A    between atoms: _200  and  _202
REMARK   81  A    between atoms: _202  and  _203
REMARK   82  A    between atoms: _202  and  _205
REMARK   83  A    between atoms: _205  and  _206
REMARK   84  A    between atoms: _206  and  _207
REMARK   85  A    between atoms: _210  and  _212
REMARK   86  A    between atoms: _212  and  _213
REMARK   87  A    between atoms: _212  and  _215
REMARK   88  A    between atoms: _215  and  _216
REMARK   89  A    between atoms: _222  and  _224
REMARK   90  A    between atoms: _224  and  _225
REMARK   91  A    between atoms: _224  and  _227
REMARK   92  A    between atoms: _227  and  _228
REMARK   93  A    between atoms: _234  and  _236
REMARK   94  A    between atoms: _236  and  _237
REMARK   95  A    between atoms: _236  and  _239
REMARK   96  A    between atoms: _239  and  _240
REMARK   97  A    between atoms: _243  and  _245
REMARK   98  A    between atoms: _245  and  _246
REMARK   99  A    between atoms: _245  and  _248
REMARK  100  A    between atoms: _248  and  _249
REMARK  101  A    between atoms: _252  and  _253
REMARK  102  A    between atoms: _258  and  _260
REMARK  103  A    between atoms: _260  and  _261
REMARK  104  A    between atoms: _260  and  _263
REMARK  105  A    between atoms: _263  and  _264
REMARK  106  A    between atoms: _267  and  _269
REMARK  107  A    between atoms: _269  and  _270
REMARK  108  A    between atoms: _269  and  _272
REMARK  109  A    between atoms: _272  and  _273
REMARK  110  A    between atoms: _273  and  _274
REMARK  111  A    between atoms: _274  and  _275
REMARK  112  A    between atoms: _275  and  _276
REMARK  113  A    between atoms: _280  and  _282
REMARK  114  A    between atoms: _282  and  _283
REMARK  115  A    between atoms: _282  and  _285
REMARK  116  A    between atoms: _285  and  _286
REMARK  117  A    between atoms: _286  and  _287
REMARK  118  A    between atoms: _289  and  _291
REMARK  119  A    between atoms: _291  and  _292
REMARK  120  A    between atoms: _291  and  _294
REMARK  121  A    between atoms: _294  and  _295
REMARK  122  A    between atoms: _301  and  _303
REMARK  123  A    between atoms: _303  and  _304
REMARK  124  A    between atoms: _303  and  _306
REMARK  125  A    between atoms: _308  and  _310
REMARK  126  A    between atoms: _310  and  _311
REMARK  127  A    between atoms: _310  and  _313
REMARK  128  A    between atoms: _313  and  _314
REMARK  129  A    between atoms: _314  and  _315
REMARK  130  A    between atoms: _315  and  _316
REMARK  131  A    between atoms: _316  and  _317
REMARK  132  A    between atoms: _321  and  _323
REMARK  133  A    between atoms: _323  and  _324
REMARK  134  A    between atoms: _323  and  _326
REMARK  135  A    between atoms: _326  and  _327
REMARK  136  A    between atoms: _330  and  _332
REMARK  137  A    between atoms: _332  and  _333
REMARK  138  A    between atoms: _332  and  _335
REMARK  139  A    between atoms: _335  and  _336
REMARK  140  A    between atoms: _336  and  _337
REMARK  141  A    between atoms: _337  and  _338
REMARK  142  A    between atoms: _347  and  _349
REMARK  143  A    between atoms: _349  and  _350
REMARK  144  A    between atoms: _349  and  _352
REMARK  145  A    between atoms: _352  and  _353
REMARK  146  A    between atoms: _356  and  _358
REMARK  147  A    between atoms: _358  and  _359
REMARK  148  A    between atoms: _358  and  _361
REMARK  149  A    between atoms: _361  and  _362
REMARK  150  A    between atoms: _362  and  _363
REMARK  151  A    between atoms: _363  and  _364
REMARK  152  A    between atoms: _364  and  _365
REMARK  153  A    between atoms: _369  and  _371
REMARK  154  A    between atoms: _371  and  _372
REMARK  155  A    between atoms: _371  and  _374
REMARK  156  A    between atoms: _374  and  _375
REMARK  157  A    between atoms: _378  and  _380
REMARK  158  A    between atoms: _380  and  _381
REMARK  159  A    between atoms: _380  and  _383
REMARK  160  A    between atoms: _383  and  _384
REMARK  161  A    between atoms: _384  and  _385
REMARK  162  A    between atoms: _385  and  MG_421
REMARK  163  A    between atoms: _387  and  _389
REMARK  164  A    between atoms: _389  and  _390
REMARK  165  A    between atoms: _389  and  _392
REMARK  166  A    between atoms: _392  and  _393
REMARK  167  A    between atoms: _393  and  _394
REMARK  168  A    between atoms: _394  and  _395
REMARK  169  A    between atoms: _404  and  _406
REMARK  170  A    between atoms: _406  and  _407
REMARK  171  A    between atoms: _410  and  _412
REMARK  172  A    between atoms: _412  and  _413
REMARK  173  A    between atoms: _412  and  _415
REMARK  174  A    between atoms: _415  and  _416
REMARK                            x       y       z     vdW  Elec       q    Type
REMARK                         _______ _______ _______ _____ _____    ______ ____
ROOT
ATOM      1  CA  ALA A   1      11.205  32.255  36.859  0.00  0.00    +0.133 C 
ATOM      2  CB  ALA A   1      11.556  33.121  35.648  0.00  0.00    +0.027 C 
ENDROOT
BRANCH   1   3
ATOM      3  N   ALA A   1      12.301  31.354  37.172  0.00  0.00    -0.239 NA
ATOM      4  H   ALA A   1      12.360  30.451  36.659  0.00  0.00    +0.142 HD
ENDBRANCH   1   3
BRANCH   1   5
ATOM      5  C   ALA A   1      10.000  31.379  36.547  0.00  0.00    +0.224 C 
ATOM      6  O   ALA A   1      10.149  30.200  36.225  0.00  0.00    -0.287 OA
ENDBRANCH   1   5
TORSDOF 2
REMARK  Name = ../refined-set-2016/1q91/1q91_pocket.pdb
REMARK  174 active torsions:
REMARK  status: ('A' for Active; 'I' for Inactive)
REMARK    1  A    between atoms: _1  and  _3
REMARK    2  A    between atoms: _3  and  _4
REMARK    3  A    between atoms: _3  and  _6
REMARK    4  A    between atoms: _6  and  _7
REMARK    5  A    between atoms: _10  and  _12
REMARK    6  A    between atoms: _12  and  _13
REMARK    7  A    between atoms: _12  and  _15
REMARK    8  A    between atoms: _15  and  _16
REMARK    9  A    between atoms: _16  and  _17
REMARK   10  A    between atoms: _19  and  _21
REMARK   11  A    between atoms: _21  and  _22
REMARK   12  A    between atoms: _21  and  _24
REMARK   13  A    between atoms: _22  and  _23
REMARK   14  A    between atoms: _22  and  _28
REMARK   15  A    between atoms: _23  and  MG_421
REMARK   16  A    between atoms: _24  and  _25
REMARK   17  A    between atoms: _28  and  _30
REMARK   18  A    between atoms: _30  and  _31
REMARK   19  A    between atoms: _33  and  _35
REMARK   20  A    between atoms: _35  and  _36
REMARK   21  A    between atoms: _35  and  _38
REMARK   22  A    between atoms: _38  and  _39
REMARK   23  A    between atoms: _45  and  _47
REMARK   24  A    between atoms: _47  and  _48
REMARK   25  A    between atoms: _47  and  _50
REMARK   26  A    between atoms: _50  and  _51
REMARK   27  A    between atoms: _51  and  _52
REMARK   28  A    between atoms: _55  and  _57
REMARK   29  A    between atoms: _57  and  _58
REMARK   30  A    between atoms: _57  and  _60
REMARK   31  A    between atoms: _60  and  _61
REMARK   32  A    between atoms: _67  and  _69
REMARK   33  A    between atoms: _69  and  _70
REMARK   34  A    between atoms: _69  and  _72
REMARK   35  A    between atoms: _72  and  _73
REMARK   36  A    between atoms: _73  and  _74
REMARK   37  A    between atoms: _74  and  _75
REMARK   38  A    between atoms: _84  and  _86
REMARK   39  A    between atoms: _86  and  _87
REMARK   40  A    between atoms: _89  and  _91
REMARK   41  A    between atoms: _91  and  _92
REMARK   42  A    between atoms: _91  and  _94
REMARK   43  A    between atoms: _94  and  _95
REMARK   44  A    between atoms: _101  and  _103
REMARK   45  A    between atoms: _103  and  _104
REMARK   46  A    between atoms: _103  and  _106
REMARK   47  A    between atoms: _106  and  _107
REMARK   48  A    between atoms: _117  and  _119
REMARK   49  A    between atoms: _119  and  _120
REMARK   50  A    between atoms: _119  and  _122
REMARK   51  A    between atoms: _125  and  _127
REMARK   52  A    between atoms: _127  and  _128
REMARK   53  A    between atoms: _127  and  _130
REMARK   54  A    between atoms: _130  and  _131
REMARK   55  A    between atoms: _133  and  _135
REMARK   56  A    between atoms: _135  and  _136
REMARK   57  A    between atoms: _135  and  _138
REMARK   58  A    between atoms: _138  and  _139
REMARK   59  A    between atoms: _139  and  _140
REMARK   60  A    between atoms: _143  and  _145
REMARK   61  A    between atoms: _145  and  _146
REMARK   62  A    between atoms: _145  and  _148
REMARK   63  A    between atoms: _148  and  _149
REMARK   64  A    between atoms: _149  and  _150
REMARK   65  A    between atoms: _155  and  _157
REMARK   66  A    between atoms: _157  and  _158
REMARK   67  A    between atoms: _157  and  _160
REMARK   68  A    between atoms: _160  and  _161
REMARK   69  A    between atoms: _166  and  _167
REMARK   70  A    between atoms: _169  and  _171
REMARK   71  A    between atoms: _171  and  _172
REMARK   72  A    between atoms: _175  and  _177
REMARK   73  A    between atoms: _177  and  _178
REMARK   74  A    between atoms: _177  and  _180
REMARK   75  A    between atoms: _180  and  _181
REMARK   76  A    between atoms: _184  and  _186
REMARK   77  A    between atoms: _186  and  _187
REMARK   78  A    between atoms: _186  and  _189
REMARK   79  A    between atoms: _189  and  _190
REMARK   80  A    between atoms: _200  and  _202
REMARK   81  A    between atoms: _202  and  _203
REMARK   82  A    between atoms: _202  and  _205
REMARK   83  A    between atoms: _205  and  _206
REMARK   84  A    between atoms: _206  and  _207
REMARK   85  A    between atoms: _210  and  _212
REMARK   86  A    between atoms: _212  and  _213
REMARK   87  A    between atoms: _212  and  _215
REMARK   88  A    between atoms: _215  and  _216
REMARK   89  A    between atoms: _222  and  _224
REMARK   90  A    between atoms: _224  and  _225
REMARK   91  A    between atoms: _224  and  _227
REMARK   92  A    between atoms: _227  and  _228
REMARK   93  A    between atoms: _234  and  _236
REMARK   94  A    between atoms: _236  and  _237
REMARK   95  A    between atoms: _236  and  _239
REMARK   96  A    between atoms: _239  and  _240
REMARK   97  A    between atoms: _243  and  _245
REMARK   98  A    between atoms: _245  and  _246
REMARK   99  A    between atoms: _245  and  _248
REMARK  100  A    between atoms: _248  and  _249
REMARK  101  A    between atoms: _252  and  _253
REMARK  102  A    between atoms: _258  and  _260
REMARK  103  A    between atoms: _260  and  _261
REMARK  104  A    between atoms: _260  and  _263
REMARK  105  A    between atoms: _263  and  _264
REMARK  106  A    between atoms: _267  and  _269
REMARK  107  A    between atoms: _269  and  _270
REMARK  108  A    between atoms: _269  and  _272
REMARK  109  A    between atoms: _272  and  _273
REMARK  110  A    between atoms: _273  and  _274
REMARK  111  A    between atoms: _274  and  _275
REMARK  112  A    between atoms: _275  and  _276
REMARK  113  A    between atoms: _280  and  _282
REMARK  114  A    between atoms: _282  and  _283
REMARK  115  A    between atoms: _282  and  _285
REMARK  116  A    between atoms: _285  and  _286
REMARK  117  A    between atoms: _286  and  _287
REMARK  118  A    between atoms: _289  and  _291
REMARK  119  A    between atoms: _291  and  _292
REMARK  120  A    between atoms: _291  and  _294
REMARK  121  A    between atoms: _294  and  _295
REMARK  122  A    between atoms: _301  and  _303
REMARK  123  A    between atoms: _303  and  _304
REMARK  124  A    between atoms: _303  and  _306
REMARK  125  A    between atoms: _308  and  _310
REMARK  126  A    between atoms: _310  and  _311
REMARK  127  A    between atoms: _310  and  _313
REMARK  128  A    between atoms: _313  and  _314
REMARK  129  A    between atoms: _314  and  _315
REMARK  130  A    between atoms: _315  and  _316
REMARK  131  A    between atoms: _316  and  _317
REMARK  132  A    between atoms: _321  and  _323
REMARK  133  A    between atoms: _323  and  _324
REMARK  134  A    between atoms: _323  and  _326
REMARK  135  A    between atoms: _326  and  _327
REMARK  136  A    between atoms: _330  and  _332
REMARK  137  A    between atoms: _332  and  _333
REMARK  138  A    between atoms: _332  and  _335
REMARK  139  A    between atoms: _335  and  _336
REMARK  140  A    between atoms: _336  and  _337
REMARK  141  A    between atoms: _337  and  _338
REMARK  142  A    between atoms: _347  and  _349
REMARK  143  A    between atoms: _349  and  _350
REMARK  144  A    between atoms: _349  and  _352
REMARK  145  A    between atoms: _352  and  _353
REMARK  146  A    between atoms: _356  and  _358
REMARK  147  A    between atoms: _358  and  _359
REMARK  148  A    between atoms: _358  and  _361
REMARK  149  A    between atoms: _361  and  _362
REMARK  150  A    between atoms: _362  and  _363
REMARK  151  A    between atoms: _363  and  _364
REMARK  152  A    between atoms: _364  and  _365
REMARK  153  A    between atoms: _369  and  _371
REMARK  154  A    between atoms: _371  and  _372
REMARK  155  A    between atoms: _371  and  _374
REMARK  156  A    between atoms: _374  and  _375
REMARK  157  A    between atoms: _378  and  _380
REMARK  158  A    between atoms: _380  and  _381
REMARK  159  A    between atoms: _380  and  _383
REMARK  160  A    between atoms: _383  and  _384
REMARK  161  A    between atoms: _384  and  _385
REMARK  162  A    between atoms: _385  and  MG_421
REMARK  163  A    between atoms: _387  and  _389
REMARK  164  A    between atoms: _389  and  _390
REMARK  165  A    between atoms: _389  and  _392
REMARK  166  A    between atoms: _392  and  _393
REMARK  167  A    between atoms: _393  and  _394
REMARK  168  A    between atoms: _394  and  _395
REMARK  169  A    between atoms: _404  and  _406
REMARK  170  A    between atoms: _406  and  _407
REMARK  171  A    between atoms: _410  and  _412
REMARK  172  A    between atoms: _412  and  _413
REMARK  173  A    between atoms: _412  and  _415
REMARK  174  A    between atoms: _415  and  _416
REMARK                            x       y       z     vdW  Elec       q    Type
REMARK                         _______ _______ _______ _____ _____    ______ ____
ROOT
ATOM      1  CB  HIS A   1       8.541  31.593  31.635  0.00  0.00    +0.072 C 
ENDROOT
BRANCH   1   2
ATOM      2  CG  HIS A   1       9.856  32.296  31.769  0.00  0.00    +0.082 A 
ATOM      3  CD2 HIS A   1      10.168  33.514  32.273  0.00  0.00    +0.115 A 
ATOM      4  NE2 HIS A   1      11.534  33.645  32.201  0.00  0.00    -0.221 NA
ATOM      5  CE1 HIS A   1      12.043  32.549  31.668  0.00  0.00    +0.199 A 
ATOM      6  ND1 HIS A   1      11.051  31.719  31.396  0.00  0.00    -0.227 NA
ENDBRANCH   1   2
BRANCH   1   7
ATOM      7  CA  HIS A   1       8.319  30.490  32.678  0.00  0.00    +0.139 C 
BRANCH   7   8
ATOM      8  N   HIS A   1       8.217  31.087  34.005  0.00  0.00    -0.239 NA
ATOM      9  H   HIS A   1       8.578  32.051  34.153  0.00  0.00    +0.142 HD
ENDBRANCH   7   8
BRANCH   7  10
ATOM     10  C   HIS A   1       9.366  29.395  32.475  0.00  0.00    +0.224 C 
ATOM     11  O   HIS A   1       9.322  28.689  31.469  0.00  0.00    -0.287 OA
ENDBRANCH   7  10
ENDBRANCH   1   7
TORSDOF 4
REMARK  Name = ../refined-set-2016/1q91/1q91_pocket.pdb
REMARK  174 active torsions:
REMARK  status: ('A' for Active; 'I' for Inactive)
REMARK    1  A    between atoms: _1  and  _3
REMARK    2  A    between atoms: _3  and  _4
REMARK    3  A    between atoms: _3  and  _6
REMARK    4  A    between atoms: _6  and  _7
REMARK    5  A    between atoms: _10  and  _12
REMARK    6  A    between atoms: _12  and  _13
REMARK    7  A    between atoms: _12  and  _15
REMARK    8  A    between atoms: _15  and  _16
REMARK    9  A    between atoms: _16  and  _17
REMARK   10  A    between atoms: _19  and  _21
REMARK   11  A    between atoms: _21  and  _22
REMARK   12  A    between atoms: _21  and  _24
REMARK   13  A    between atoms: _22  and  _23
REMARK   14  A    between atoms: _22  and  _28
REMARK   15  A    between atoms: _23  and  MG_421
REMARK   16  A    between atoms: _24  and  _25
REMARK   17  A    between atoms: _28  and  _30
REMARK   18  A    between atoms: _30  and  _31
REMARK   19  A    between atoms: _33  and  _35
REMARK   20  A    between atoms: _35  and  _36
REMARK   21  A    between atoms: _35  and  _38
REMARK   22  A    between atoms: _38  and  _39
REMARK   23  A    between atoms: _45  and  _47
REMARK   24  A    between atoms: _47  and  _48
REMARK   25  A    between atoms: _47  and  _50
REMARK   26  A    between atoms: _50  and  _51
REMARK   27  A    between atoms: _51  and  _52
REMARK   28  A    between atoms: _55  and  _57
REMARK   29  A    between atoms: _57  and  _58
REMARK   30  A    between atoms: _57  and  _60
REMARK   31  A    between atoms: _60  and  _61
REMARK   32  A    between atoms: _67  and  _69
REMARK   33  A    between atoms: _69  and  _70
REMARK   34  A    between atoms: _69  and  _72
REMARK   35  A    between atoms: _72  and  _73
REMARK   36  A    between atoms: _73  and  _74
REMARK   37  A    between atoms: _74  and  _75
REMARK   38  A    between atoms: _84  and  _86
REMARK   39  A    between atoms: _86  and  _87
REMARK   40  A    between atoms: _89  and  _91
REMARK   41  A    between atoms: _91  and  _92
REMARK   42  A    between atoms: _91  and  _94
REMARK   43  A    between atoms: _94  and  _95
REMARK   44  A    between atoms: _101  and  _103
REMARK   45  A    between atoms: _103  and  _104
REMARK   46  A    between atoms: _103  and  _106
REMARK   47  A    between atoms: _106  and  _107
REMARK   48  A    between atoms: _117  and  _119
REMARK   49  A    between atoms: _119  and  _120
REMARK   50  A    between atoms: _119  and  _122
REMARK   51  A    between atoms: _125  and  _127
REMARK   52  A    between atoms: _127  and  _128
REMARK   53  A    between atoms: _127  and  _130
REMARK   54  A    between atoms: _130  and  _131
REMARK   55  A    between atoms: _133  and  _135
REMARK   56  A    between atoms: _135  and  _136
REMARK   57  A    between atoms: _135  and  _138
REMARK   58  A    between atoms: _138  and  _139
REMARK   59  A    between atoms: _139  and  _140
REMARK   60  A    between atoms: _143  and  _145
REMARK   61  A    between atoms: _145  and  _146
REMARK   62  A    between atoms: _145  and  _148
REMARK   63  A    between atoms: _148  and  _149
REMARK   64  A    between atoms: _149  and  _150
REMARK   65  A    between atoms: _155  and  _157
REMARK   66  A    between atoms: _157  and  _158
REMARK   67  A    between atoms: _157  and  _160
REMARK   68  A    between atoms: _160  and  _161
REMARK   69  A    between atoms: _166  and  _167
REMARK   70  A    between atoms: _169  and  _171
REMARK   71  A    between atoms: _171  and  _172
REMARK   72  A    between atoms: _175  and  _177
REMARK   73  A    between atoms: _177  and  _178
REMARK   74  A    between atoms: _177  and  _180
REMARK   75  A    between atoms: _180  and  _181
REMARK   76  A    between atoms: _184  and  _186
REMARK   77  A    between atoms: _186  and  _187
REMARK   78  A    between atoms: _186  and  _189
REMARK   79  A    between atoms: _189  and  _190
REMARK   80  A    between atoms: _200  and  _202
REMARK   81  A    between atoms: _202  and  _203
REMARK   82  A    between atoms: _202  and  _205
REMARK   83  A    between atoms: _205  and  _206
REMARK   84  A    between atoms: _206  and  _207
REMARK   85  A    between atoms: _210  and  _212
REMARK   86  A    between atoms: _212  and  _213
REMARK   87  A    between atoms: _212  and  _215
REMARK   88  A    between atoms: _215  and  _216
REMARK   89  A    between atoms: _222  and  _224
REMARK   90  A    between atoms: _224  and  _225
REMARK   91  A    between atoms: _224  and  _227
REMARK   92  A    between atoms: _227  and  _228
REMARK   93  A    between atoms: _234  and  _236
REMARK   94  A    between atoms: _236  and  _237
REMARK   95  A    between atoms: _236  and  _239
REMARK   96  A    between atoms: _239  and  _240
REMARK   97  A    between atoms: _243  and  _245
REMARK   98  A    between atoms: _245  and  _246
REMARK   99  A    between atoms: _245  and  _248
REMARK  100  A    between atoms: _248  and  _249
REMARK  101  A    between atoms: _252  and  _253
REMARK  102  A    between atoms: _258  and  _260
REMARK  103  A    between atoms: _260  and  _261
REMARK  104  A    between atoms: _260  and  _263
REMARK  105  A    between atoms: _263  and  _264
REMARK  106  A    between atoms: _267  and  _269
REMARK  107  A    between atoms: _269  and  _270
REMARK  108  A    between atoms: _269  and  _272
REMARK  109  A    between atoms: _272  and  _273
REMARK  110  A    between atoms: _273  and  _274
REMARK  111  A    between atoms: _274  and  _275
REMARK  112  A    between atoms: _275  and  _276
REMARK  113  A    between atoms: _280  and  _282
REMARK  114  A    between atoms: _282  and  _283
REMARK  115  A    between atoms: _282  and  _285
REMARK  116  A    between atoms: _285  and  _286
REMARK  117  A    between atoms: _286  and  _287
REMARK  118  A    between atoms: _289  and  _291
REMARK  119  A    between atoms: _291  and  _292
REMARK  120  A    between atoms: _291  and  _294
REMARK  121  A    between atoms: _294  and  _295
REMARK  122  A    between atoms: _301  and  _303
REMARK  123  A    between atoms: _303  and  _304
REMARK  124  A    between atoms: _303  and  _306
REMARK  125  A    between atoms: _308  and  _310
REMARK  126  A    between atoms: _310  and  _311
REMARK  127  A    between atoms: _310  and  _313
REMARK  128  A    between atoms: _313  and  _314
REMARK  129  A    between atoms: _314  and  _315
REMARK  130  A    between atoms: _315  and  _316
REMARK  131  A    between atoms: _316  and  _317
REMARK  132  A    between atoms: _321  and  _323
REMARK  133  A    between atoms: _323  and  _324
REMARK  134  A    between atoms: _323  and  _326
REMARK  135  A    between atoms: _326  and  _327
REMARK  136  A    between atoms: _330  and  _332
REMARK  137  A    between atoms: _332  and  _333
REMARK  138  A    between atoms: _332  and  _335
REMARK  139  A    between atoms: _335  and  _336
REMARK  140  A    between atoms: _336  and  _337
REMARK  141  A    between atoms: _337  and  _338
REMARK  142  A    between atoms: _347  and  _349
REMARK  143  A    between atoms: _349  and  _350
REMARK  144  A    between atoms: _349  and  _352
REMARK  145  A    between atoms: _352  and  _353
REMARK  146  A    between atoms: _356  and  _358
REMARK  147  A    between atoms: _358  and  _359
REMARK  148  A    between atoms: _358  and  _361
REMARK  149  A    between atoms: _361  and  _362
REMARK  150  A    between atoms: _362  and  _363
REMARK  151  A    between atoms: _363  and  _364
REMARK  152  A    between atoms: _364  and  _365
REMARK  153  A    between atoms: _369  and  _371
REMARK  154  A    between atoms: _371  and  _372
REMARK  155  A    between atoms: _371  and  _374
REMARK  156  A    between atoms: _374  and  _375
REMARK  157  A    between atoms: _378  and  _380
REMARK  158  A    between atoms: _380  and  _381
REMARK  159  A    between atoms: _380  and  _383
REMARK  160  A    between atoms: _383  and  _384
REMARK  161  A    between atoms: _384  and  _385
REMARK  162  A    between atoms: _385  and  MG_421
REMARK  163  A    between atoms: _387  and  _389
REMARK  164  A    between atoms: _389  and  _390
REMARK  165  A    between atoms: _389  and  _392
REMARK  166  A    between atoms: _392  and  _393
REMARK  167  A    between atoms: _393  and  _394
REMARK  168  A    between atoms: _394  and  _395
REMARK  169  A    between atoms: _404  and  _406
REMARK  170  A    between atoms: _406  and  _407
REMARK  171  A    between atoms: _410  and  _412
REMARK  172  A    between atoms: _412  and  _413
REMARK  173  A    between atoms: _412  and  _415
REMARK  174  A    between atoms: _415  and  _416
REMARK                            x       y       z     vdW  Elec       q    Type
REMARK                         _______ _______ _______ _____ _____    ______ ____
ROOT
ATOM      1  O   HOH     1      10.363  46.264  20.892  0.00  0.00    +0.000 OA
ENDROOT
TORSDOF 0
REMARK  Name = ../refined-set-2016/1q91/1q91_pocket.pdb
REMARK  174 active torsions:
REMARK  status: ('A' for Active; 'I' for Inactive)
REMARK    1  A    between atoms: _1  and  _3
REMARK    2  A    between atoms: _3  and  _4
REMARK    3  A    between atoms: _3  and  _6
REMARK    4  A    between atoms: _6  and  _7
REMARK    5  A    between atoms: _10  and  _12
REMARK    6  A    between atoms: _12  and  _13
REMARK    7  A    between atoms: _12  and  _15
REMARK    8  A    between atoms: _15  and  _16
REMARK    9  A    between atoms: _16  and  _17
REMARK   10  A    between atoms: _19  and  _21
REMARK   11  A    between atoms: _21  and  _22
REMARK   12  A    between atoms: _21  and  _24
REMARK   13  A    between atoms: _22  and  _23
REMARK   14  A    between atoms: _22  and  _28
REMARK   15  A    between atoms: _23  and  MG_421
REMARK   16  A    between atoms: _24  and  _25
REMARK   17  A    between atoms: _28  and  _30
REMARK   18  A    between atoms: _30  and  _31
REMARK   19  A    between atoms: _33  and  _35
REMARK   20  A    between atoms: _35  and  _36
REMARK   21  A    between atoms: _35  and  _38
REMARK   22  A    between atoms: _38  and  _39
REMARK   23  A    between atoms: _45  and  _47
REMARK   24  A    between atoms: _47  and  _48
REMARK   25  A    between atoms: _47  and  _50
REMARK   26  A    between atoms: _50  and  _51
REMARK   27  A    between atoms: _51  and  _52
REMARK   28  A    between atoms: _55  and  _57
REMARK   29  A    between atoms: _57  and  _58
REMARK   30  A    between atoms: _57  and  _60
REMARK   31  A    between atoms: _60  and  _61
REMARK   32  A    between atoms: _67  and  _69
REMARK   33  A    between atoms: _69  and  _70
REMARK   34  A    between atoms: _69  and  _72
REMARK   35  A    between atoms: _72  and  _73
REMARK   36  A    between atoms: _73  and  _74
REMARK   37  A    between atoms: _74  and  _75
REMARK   38  A    between atoms: _84  and  _86
REMARK   39  A    between atoms: _86  and  _87
REMARK   40  A    between atoms: _89  and  _91
REMARK   41  A    between atoms: _91  and  _92
REMARK   42  A    between atoms: _91  and  _94
REMARK   43  A    between atoms: _94  and  _95
REMARK   44  A    between atoms: _101  and  _103
REMARK   45  A    between atoms: _103  and  _104
REMARK   46  A    between atoms: _103  and  _106
REMARK   47  A    between atoms: _106  and  _107
REMARK   48  A    between atoms: _117  and  _119
REMARK   49  A    between atoms: _119  and  _120
REMARK   50  A    between atoms: _119  and  _122
REMARK   51  A    between atoms: _125  and  _127
REMARK   52  A    between atoms: _127  and  _128
REMARK   53  A    between atoms: _127  and  _130
REMARK   54  A    between atoms: _130  and  _131
REMARK   55  A    between atoms: _133  and  _135
REMARK   56  A    between atoms: _135  and  _136
REMARK   57  A    between atoms: _135  and  _138
REMARK   58  A    between atoms: _138  and  _139
REMARK   59  A    between atoms: _139  and  _140
REMARK   60  A    between atoms: _143  and  _145
REMARK   61  A    between atoms: _145  and  _146
REMARK   62  A    between atoms: _145  and  _148
REMARK   63  A    between atoms: _148  and  _149
REMARK   64  A    between atoms: _149  and  _150
REMARK   65  A    between atoms: _155  and  _157
REMARK   66  A    between atoms: _157  and  _158
REMARK   67  A    between atoms: _157  and  _160
REMARK   68  A    between atoms: _160  and  _161
REMARK   69  A    between atoms: _166  and  _167
REMARK   70  A    between atoms: _169  and  _171
REMARK   71  A    between atoms: _171  and  _172
REMARK   72  A    between atoms: _175  and  _177
REMARK   73  A    between atoms: _177  and  _178
REMARK   74  A    between atoms: _177  and  _180
REMARK   75  A    between atoms: _180  and  _181
REMARK   76  A    between atoms: _184  and  _186
REMARK   77  A    between atoms: _186  and  _187
REMARK   78  A    between atoms: _186  and  _189
REMARK   79  A    between atoms: _189  and  _190
REMARK   80  A    between atoms: _200  and  _202
REMARK   81  A    between atoms: _202  and  _203
REMARK   82  A    between atoms: _202  and  _205
REMARK   83  A    between atoms: _205  and  _206
REMARK   84  A    between atoms: _206  and  _207
REMARK   85  A    between atoms: _210  and  _212
REMARK   86  A    between atoms: _212  and  _213
REMARK   87  A    between atoms: _212  and  _215
REMARK   88  A    between atoms: _215  and  _216
REMARK   89  A    between atoms: _222  and  _224
REMARK   90  A    between atoms: _224  and  _225
REMARK   91  A    between atoms: _224  and  _227
REMARK   92  A    between atoms: _227  and  _228
REMARK   93  A    between atoms: _234  and  _236
REMARK   94  A    between atoms: _236  and  _237
REMARK   95  A    between atoms: _236  and  _239
REMARK   96  A    between atoms: _239  and  _240
REMARK   97  A    between atoms: _243  and  _245
REMARK   98  A    between atoms: _245  and  _246
REMARK   99  A    between atoms: _245  and  _248
REMARK  100  A    between atoms: _248  and  _249
REMARK  101  A    between atoms: _252  and  _253
REMARK  102  A    between atoms: _258  and  _260
REMARK  103  A    between atoms: _260  and  _261
REMARK  104  A    between atoms: _260  and  _263
REMARK  105  A    between atoms: _263  and  _264
REMARK  106  A    between atoms: _267  and  _269
REMARK  107  A    between atoms: _269  and  _270
REMARK  108  A    between atoms: _269  and  _272
REMARK  109  A    between atoms: _272  and  _273
REMARK  110  A    between atoms: _273  and  _274
REMARK  111  A    between atoms: _274  and  _275
REMARK  112  A    between atoms: _275  and  _276
REMARK  113  A    between atoms: _280  and  _282
REMARK  114  A    between atoms: _282  and  _283
REMARK  115  A    between atoms: _282  and  _285
REMARK  116  A    between atoms: _285  and  _286
REMARK  117  A    between atoms: _286  and  _287
REMARK  118  A    between atoms: _289  and  _291
REMARK  119  A    between atoms: _291  and  _292
REMARK  120  A    between atoms: _291  and  _294
REMARK  121  A    between atoms: _294  and  _295
REMARK  122  A    between atoms: _301  and  _303
REMARK  123  A    between atoms: _303  and  _304
REMARK  124  A    between atoms: _303  and  _306
REMARK  125  A    between atoms: _308  and  _310
REMARK  126  A    between atoms: _310  and  _311
REMARK  127  A    between atoms: _310  and  _313
REMARK  128  A    between atoms: _313  and  _314
REMARK  129  A    between atoms: _314  and  _315
REMARK  130  A    between atoms: _315  and  _316
REMARK  131  A    between atoms: _316  and  _317
REMARK  132  A    between atoms: _321  and  _323
REMARK  133  A    between atoms: _323  and  _324
REMARK  134  A    between atoms: _323  and  _326
REMARK  135  A    between atoms: _326  and  _327
REMARK  136  A    between atoms: _330  and  _332
REMARK  137  A    between atoms: _332  and  _333
REMARK  138  A    between atoms: _332  and  _335
REMARK  139  A    between atoms: _335  and  _336
REMARK  140  A    between atoms: _336  and  _337
REMARK  141  A    between atoms: _337  and  _338
REMARK  142  A    between atoms: _347  and  _349
REMARK  143  A    between atoms: _349  and  _350
REMARK  144  A    between atoms: _349  and  _352
REMARK  145  A    between atoms: _352  and  _353
REMARK  146  A    between atoms: _356  and  _358
REMARK  147  A    between atoms: _358  and  _359
REMARK  148  A    between atoms: _358  and  _361
REMARK  149  A    between atoms: _361  and  _362
REMARK  150  A    between atoms: _362  and  _363
REMARK  151  A    between atoms: _363  and  _364
REMARK  152  A    between atoms: _364  and  _365
REMARK  153  A    between atoms: _369  and  _371
REMARK  154  A    between atoms: _371  and  _372
REMARK  155  A    between atoms: _371  and  _374
REMARK  156  A    between atoms: _374  and  _375
REMARK  157  A    between atoms: _378  and  _380
REMARK  158  A    between atoms: _380  and  _381
REMARK  159  A    between atoms: _380  and  _383
REMARK  160  A    between atoms: _383  and  _384
REMARK  161  A    between atoms: _384  and  _385
REMARK  162  A    between atoms: _385  and  MG_421
REMARK  163  A    between atoms: _387  and  _389
REMARK  164  A    between atoms: _389  and  _390
REMARK  165  A    between atoms: _389  and  _392
REMARK  166  A    between atoms: _392  and  _393
REMARK  167  A    between atoms: _393  and  _394
REMARK  168  A    between atoms: _394  and  _395
REMARK  169  A    between atoms: _404  and  _406
REMARK  170  A    between atoms: _406  and  _407
REMARK  171  A    between atoms: _410  and  _412
REMARK  172  A    between atoms: _412  and  _413
REMARK  173  A    between atoms: _412  and  _415
REMARK  174  A    between atoms: _415  and  _416
REMARK                            x       y       z     vdW  Elec       q    Type
REMARK                         _______ _______ _______ _____ _____    ______ ____
ROOT
ATOM      1  O   HOH     1      14.381  46.148  33.343  0.00  0.00    +0.000 OA
ENDROOT
TORSDOF 0
REMARK  Name = ../refined-set-2016/1q91/1q91_pocket.pdb
REMARK  174 active torsions:
REMARK  status: ('A' for Active; 'I' for Inactive)
REMARK    1  A    between atoms: _1  and  _3
REMARK    2  A    between atoms: _3  and  _4
REMARK    3  A    between atoms: _3  and  _6
REMARK    4  A    between atoms: _6  and  _7
REMARK    5  A    between atoms: _10  and  _12
REMARK    6  A    between atoms: _12  and  _13
REMARK    7  A    between atoms: _12  and  _15
REMARK    8  A    between atoms: _15  and  _16
REMARK    9  A    between atoms: _16  and  _17
REMARK   10  A    between atoms: _19  and  _21
REMARK   11  A    between atoms: _21  and  _22
REMARK   12  A    between atoms: _21  and  _24
REMARK   13  A    between atoms: _22  and  _23
REMARK   14  A    between atoms: _22  and  _28
REMARK   15  A    between atoms: _23  and  MG_421
REMARK   16  A    between atoms: _24  and  _25
REMARK   17  A    between atoms: _28  and  _30
REMARK   18  A    between atoms: _30  and  _31
REMARK   19  A    between atoms: _33  and  _35
REMARK   20  A    between atoms: _35  and  _36
REMARK   21  A    between atoms: _35  and  _38
REMARK   22  A    between atoms: _38  and  _39
REMARK   23  A    between atoms: _45  and  _47
REMARK   24  A    between atoms: _47  and  _48
REMARK   25  A    between atoms: _47  and  _50
REMARK   26  A    between atoms: _50  and  _51
REMARK   27  A    between atoms: _51  and  _52
REMARK   28  A    between atoms: _55  and  _57
REMARK   29  A    between atoms: _57  and  _58
REMARK   30  A    between atoms: _57  and  _60
REMARK   31  A    between atoms: _60  and  _61
REMARK   32  A    between atoms: _67  and  _69
REMARK   33  A    between atoms: _69  and  _70
REMARK   34  A    between atoms: _69  and  _72
REMARK   35  A    between atoms: _72  and  _73
REMARK   36  A    between atoms: _73  and  _74
REMARK   37  A    between atoms: _74  and  _75
REMARK   38  A    between atoms: _84  and  _86
REMARK   39  A    between atoms: _86  and  _87
REMARK   40  A    between atoms: _89  and  _91
REMARK   41  A    between atoms: _91  and  _92
REMARK   42  A    between atoms: _91  and  _94
REMARK   43  A    between atoms: _94  and  _95
REMARK   44  A    between atoms: _101  and  _103
REMARK   45  A    between atoms: _103  and  _104
REMARK   46  A    between atoms: _103  and  _106
REMARK   47  A    between atoms: _106  and  _107
REMARK   48  A    between atoms: _117  and  _119
REMARK   49  A    between atoms: _119  and  _120
REMARK   50  A    between atoms: _119  and  _122
REMARK   51  A    between atoms: _125  and  _127
REMARK   52  A    between atoms: _127  and  _128
REMARK   53  A    between atoms: _127  and  _130
REMARK   54  A    between atoms: _130  and  _131
REMARK   55  A    between atoms: _133  and  _135
REMARK   56  A    between atoms: _135  and  _136
REMARK   57  A    between atoms: _135  and  _138
REMARK   58  A    between atoms: _138  and  _139
REMARK   59  A    between atoms: _139  and  _140
REMARK   60  A    between atoms: _143  and  _145
REMARK   61  A    between atoms: _145  and  _146
REMARK   62  A    between atoms: _145  and  _148
REMARK   63  A    between atoms: _148  and  _149
REMARK   64  A    between atoms: _149  and  _150
REMARK   65  A    between atoms: _155  and  _157
REMARK   66  A    between atoms: _157  and  _158
REMARK   67  A    between atoms: _157  and  _160
REMARK   68  A    between atoms: _160  and  _161
REMARK   69  A    between atoms: _166  and  _167
REMARK   70  A    between atoms: _169  and  _171
REMARK   71  A    between atoms: _171  and  _172
REMARK   72  A    between atoms: _175  and  _177
REMARK   73  A    between atoms: _177  and  _178
REMARK   74  A    between atoms: _177  and  _180
REMARK   75  A    between atoms: _180  and  _181
REMARK   76  A    between atoms: _184  and  _186
REMARK   77  A    between atoms: _186  and  _187
REMARK   78  A    between atoms: _186  and  _189
REMARK   79  A    between atoms: _189  and  _190
REMARK   80  A    between atoms: _200  and  _202
REMARK   81  A    between atoms: _202  and  _203
REMARK   82  A    between atoms: _202  and  _205
REMARK   83  A    between atoms: _205  and  _206
REMARK   84  A    between atoms: _206  and  _207
REMARK   85  A    between atoms: _210  and  _212
REMARK   86  A    between atoms: _212  and  _213
REMARK   87  A    between atoms: _212  and  _215
REMARK   88  A    between atoms: _215  and  _216
REMARK   89  A    between atoms: _222  and  _224
REMARK   90  A    between atoms: _224  and  _225
REMARK   91  A    between atoms: _224  and  _227
REMARK   92  A    between atoms: _227  and  _228
REMARK   93  A    between atoms: _234  and  _236
REMARK   94  A    between atoms: _236  and  _237
REMARK   95  A    between atoms: _236  and  _239
REMARK   96  A    between atoms: _239  and  _240
REMARK   97  A    between atoms: _243  and  _245
REMARK   98  A    between atoms: _245  and  _246
REMARK   99  A    between atoms: _245  and  _248
REMARK  100  A    between atoms: _248  and  _249
REMARK  101  A    between atoms: _252  and  _253
REMARK  102  A    between atoms: _258  and  _260
REMARK  103  A    between atoms: _260  and  _261
REMARK  104  A    between atoms: _260  and  _263
REMARK  105  A    between atoms: _263  and  _264
REMARK  106  A    between atoms: _267  and  _269
REMARK  107  A    between atoms: _269  and  _270
REMARK  108  A    between atoms: _269  and  _272
REMARK  109  A    between atoms: _272  and  _273
REMARK  110  A    between atoms: _273  and  _274
REMARK  111  A    between atoms: _274  and  _275
REMARK  112  A    between atoms: _275  and  _276
REMARK  113  A    between atoms: _280  and  _282
REMARK  114  A    between atoms: _282  and  _283
REMARK  115  A    between atoms: _282  and  _285
REMARK  116  A    between atoms: _285  and  _286
REMARK  117  A    between atoms: _286  and  _287
REMARK  118  A    between atoms: _289  and  _291
REMARK  119  A    between atoms: _291  and  _292
REMARK  120  A    between atoms: _291  and  _294
REMARK  121  A    between atoms: _294  and  _295
REMARK  122  A    between atoms: _301  and  _303
REMARK  123  A    between atoms: _303  and  _304
REMARK  124  A    between atoms: _303  and  _306
REMARK  125  A    between atoms: _308  and  _310
REMARK  126  A    between atoms: _310  and  _311
REMARK  127  A    between atoms: _310  and  _313
REMARK  128  A    between atoms: _313  and  _314
REMARK  129  A    between atoms: _314  and  _315
REMARK  130  A    between atoms: _315  and  _316
REMARK  131  A    between atoms: _316  and  _317
REMARK  132  A    between atoms: _321  and  _323
REMARK  133  A    between atoms: _323  and  _324
REMARK  134  A    between atoms: _323  and  _326
REMARK  135  A    between atoms: _326  and  _327
REMARK  136  A    between atoms: _330  and  _332
REMARK  137  A    between atoms: _332  and  _333
REMARK  138  A    between atoms: _332  and  _335
REMARK  139  A    between atoms: _335  and  _336
REMARK  140  A    between atoms: _336  and  _337
REMARK  141  A    between atoms: _337  and  _338
REMARK  142  A    between atoms: _347  and  _349
REMARK  143  A    between atoms: _349  and  _350
REMARK  144  A    between atoms: _349  and  _352
REMARK  145  A    between atoms: _352  and  _353
REMARK  146  A    between atoms: _356  and  _358
REMARK  147  A    between atoms: _358  and  _359
REMARK  148  A    between atoms: _358  and  _361
REMARK  149  A    between atoms: _361  and  _362
REMARK  150  A    between atoms: _362  and  _363
REMARK  151  A    between atoms: _363  and  _364
REMARK  152  A    between atoms: _364  and  _365
REMARK  153  A    between atoms: _369  and  _371
REMARK  154  A    between atoms: _371  and  _372
REMARK  155  A    between atoms: _371  and  _374
REMARK  156  A    between atoms: _374  and  _375
REMARK  157  A    between atoms: _378  and  _380
REMARK  158  A    between atoms: _380  and  _381
REMARK  159  A    between atoms: _380  and  _383
REMARK  160  A    between atoms: _383  and  _384
REMARK  161  A    between atoms: _384  and  _385
REMARK  162  A    between atoms: _385  and  MG_421
REMARK  163  A    between atoms: _387  and  _389
REMARK  164  A    between atoms: _389  and  _390
REMARK  165  A    between atoms: _389  and  _392
REMARK  166  A    between atoms: _392  and  _393
REMARK  167  A    between atoms: _393  and  _394
REMARK  168  A    between atoms: _394  and  _395
REMARK  169  A    between atoms: _404  and  _406
REMARK  170  A    between atoms: _406  and  _407
REMARK  171  A    between atoms: _410  and  _412
REMARK  172  A    between atoms: _412  and  _413
REMARK  173  A    between atoms: _412  and  _415
REMARK  174  A    between atoms: _415  and  _416
REMARK                            x       y       z     vdW  Elec       q    Type
REMARK                         _______ _______ _______ _____ _____    ______ ____
ROOT
ATOM      1  O   HOH     1      17.529  38.523  28.167  0.00  0.00    +0.000 OA
ENDROOT
TORSDOF 0
REMARK  Name = ../refined-set-2016/1q91/1q91_pocket.pdb
REMARK  174 active torsions:
REMARK  status: ('A' for Active; 'I' for Inactive)
REMARK    1  A    between atoms: _1  and  _3
REMARK    2  A    between atoms: _3  and  _4
REMARK    3  A    between atoms: _3  and  _6
REMARK    4  A    between atoms: _6  and  _7
REMARK    5  A    between atoms: _10  and  _12
REMARK    6  A    between atoms: _12  and  _13
REMARK    7  A    between atoms: _12  and  _15
REMARK    8  A    between atoms: _15  and  _16
REMARK    9  A    between atoms: _16  and  _17
REMARK   10  A    between atoms: _19  and  _21
REMARK   11  A    between atoms: _21  and  _22
REMARK   12  A    between atoms: _21  and  _24
REMARK   13  A    between atoms: _22  and  _23
REMARK   14  A    between atoms: _22  and  _28
REMARK   15  A    between atoms: _23  and  MG_421
REMARK   16  A    between atoms: _24  and  _25
REMARK   17  A    between atoms: _28  and  _30
REMARK   18  A    between atoms: _30  and  _31
REMARK   19  A    between atoms: _33  and  _35
REMARK   20  A    between atoms: _35  and  _36
REMARK   21  A    between atoms: _35  and  _38
REMARK   22  A    between atoms: _38  and  _39
REMARK   23  A    between atoms: _45  and  _47
REMARK   24  A    between atoms: _47  and  _48
REMARK   25  A    between atoms: _47  and  _50
REMARK   26  A    between atoms: _50  and  _51
REMARK   27  A    between atoms: _51  and  _52
REMARK   28  A    between atoms: _55  and  _57
REMARK   29  A    between atoms: _57  and  _58
REMARK   30  A    between atoms: _57  and  _60
REMARK   31  A    between atoms: _60  and  _61
REMARK   32  A    between atoms: _67  and  _69
REMARK   33  A    between atoms: _69  and  _70
REMARK   34  A    between atoms: _69  and  _72
REMARK   35  A    between atoms: _72  and  _73
REMARK   36  A    between atoms: _73  and  _74
REMARK   37  A    between atoms: _74  and  _75
REMARK   38  A    between atoms: _84  and  _86
REMARK   39  A    between atoms: _86  and  _87
REMARK   40  A    between atoms: _89  and  _91
REMARK   41  A    between atoms: _91  and  _92
REMARK   42  A    between atoms: _91  and  _94
REMARK   43  A    between atoms: _94  and  _95
REMARK   44  A    between atoms: _101  and  _103
REMARK   45  A    between atoms: _103  and  _104
REMARK   46  A    between atoms: _103  and  _106
REMARK   47  A    between atoms: _106  and  _107
REMARK   48  A    between atoms: _117  and  _119
REMARK   49  A    between atoms: _119  and  _120
REMARK   50  A    between atoms: _119  and  _122
REMARK   51  A    between atoms: _125  and  _127
REMARK   52  A    between atoms: _127  and  _128
REMARK   53  A    between atoms: _127  and  _130
REMARK   54  A    between atoms: _130  and  _131
REMARK   55  A    between atoms: _133  and  _135
REMARK   56  A    between atoms: _135  and  _136
REMARK   57  A    between atoms: _135  and  _138
REMARK   58  A    between atoms: _138  and  _139
REMARK   59  A    between atoms: _139  and  _140
REMARK   60  A    between atoms: _143  and  _145
REMARK   61  A    between atoms: _145  and  _146
REMARK   62  A    between atoms: _145  and  _148
REMARK   63  A    between atoms: _148  and  _149
REMARK   64  A    between atoms: _149  and  _150
REMARK   65  A    between atoms: _155  and  _157
REMARK   66  A    between atoms: _157  and  _158
REMARK   67  A    between atoms: _157  and  _160
REMARK   68  A    between atoms: _160  and  _161
REMARK   69  A    between atoms: _166  and  _167
REMARK   70  A    between atoms: _169  and  _171
REMARK   71  A    between atoms: _171  and  _172
REMARK   72  A    between atoms: _175  and  _177
REMARK   73  A    between atoms: _177  and  _178
REMARK   74  A    between atoms: _177  and  _180
REMARK   75  A    between atoms: _180  and  _181
REMARK   76  A    between atoms: _184  and  _186
REMARK   77  A    between atoms: _186  and  _187
REMARK   78  A    between atoms: _186  and  _189
REMARK   79  A    between atoms: _189  and  _190
REMARK   80  A    between atoms: _200  and  _202
REMARK   81  A    between atoms: _202  and  _203
REMARK   82  A    between atoms: _202  and  _205
REMARK   83  A    between atoms: _205  and  _206
REMARK   84  A    between atoms: _206  and  _207
REMARK   85  A    between atoms: _210  and  _212
REMARK   86  A    between atoms: _212  and  _213
REMARK   87  A    between atoms: _212  and  _215
REMARK   88  A    between atoms: _215  and  _216
REMARK   89  A    between atoms: _222  and  _224
REMARK   90  A    between atoms: _224  and  _225
REMARK   91  A    between atoms: _224  and  _227
REMARK   92  A    between atoms: _227  and  _228
REMARK   93  A    between atoms: _234  and  _236
REMARK   94  A    between atoms: _236  and  _237
REMARK   95  A    between atoms: _236  and  _239
REMARK   96  A    between atoms: _239  and  _240
REMARK   97  A    between atoms: _243  and  _245
REMARK   98  A    between atoms: _245  and  _246
REMARK   99  A    between atoms: _245  and  _248
REMARK  100  A    between atoms: _248  and  _249
REMARK  101  A    between atoms: _252  and  _253
REMARK  102  A    between atoms: _258  and  _260
REMARK  103  A    between atoms: _260  and  _261
REMARK  104  A    between atoms: _260  and  _263
REMARK  105  A    between atoms: _263  and  _264
REMARK  106  A    between atoms: _267  and  _269
REMARK  107  A    between atoms: _269  and  _270
REMARK  108  A    between atoms: _269  and  _272
REMARK  109  A    between atoms: _272  and  _273
REMARK  110  A    between atoms: _273  and  _274
REMARK  111  A    between atoms: _274  and  _275
REMARK  112  A    between atoms: _275  and  _276
REMARK  113  A    between atoms: _280  and  _282
REMARK  114  A    between atoms: _282  and  _283
REMARK  115  A    between atoms: _282  and  _285
REMARK  116  A    between atoms: _285  and  _286
REMARK  117  A    between atoms: _286  and  _287
REMARK  118  A    between atoms: _289  and  _291
REMARK  119  A    between atoms: _291  and  _292
REMARK  120  A    between atoms: _291  and  _294
REMARK  121  A    between atoms: _294  and  _295
REMARK  122  A    between atoms: _301  and  _303
REMARK  123  A    between atoms: _303  and  _304
REMARK  124  A    between atoms: _303  and  _306
REMARK  125  A    between atoms: _308  and  _310
REMARK  126  A    between atoms: _310  and  _311
REMARK  127  A    between atoms: _310  and  _313
REMARK  128  A    between atoms: _313  and  _314
REMARK  129  A    between atoms: _314  and  _315
REMARK  130  A    between atoms: _315  and  _316
REMARK  131  A    between atoms: _316  and  _317
REMARK  132  A    between atoms: _321  and  _323
REMARK  133  A    between atoms: _323  and  _324
REMARK  134  A    between atoms: _323  and  _326
REMARK  135  A    between atoms: _326  and  _327
REMARK  136  A    between atoms: _330  and  _332
REMARK  137  A    between atoms: _332  and  _333
REMARK  138  A    between atoms: _332  and  _335
REMARK  139  A    between atoms: _335  and  _336
REMARK  140  A    between atoms: _336  and  _337
REMARK  141  A    between atoms: _337  and  _338
REMARK  142  A    between atoms: _347  and  _349
REMARK  143  A    between atoms: _349  and  _350
REMARK  144  A    between atoms: _349  and  _352
REMARK  145  A    between atoms: _352  and  _353
REMARK  146  A    between atoms: _356  and  _358
REMARK  147  A    between atoms: _358  and  _359
REMARK  148  A    between atoms: _358  and  _361
REMARK  149  A    between atoms: _361  and  _362
REMARK  150  A    between atoms: _362  and  _363
REMARK  151  A    between atoms: _363  and  _364
REMARK  152  A    between atoms: _364  and  _365
REMARK  153  A    between atoms: _369  and  _371
REMARK  154  A    between atoms: _371  and  _372
REMARK  155  A    between atoms: _371  and  _374
REMARK  156  A    between atoms: _374  and  _375
REMARK  157  A    between atoms: _378  and  _380
REMARK  158  A    between atoms: _380  and  _381
REMARK  159  A    between atoms: _380  and  _383
REMARK  160  A    between atoms: _383  and  _384
REMARK  161  A    between atoms: _384  and  _385
REMARK  162  A    between atoms: _385  and  MG_421
REMARK  163  A    between atoms: _387  and  _389
REMARK  164  A    between atoms: _389  and  _390
REMARK  165  A    between atoms: _389  and  _392
REMARK  166  A    between atoms: _392  and  _393
REMARK  167  A    between atoms: _393  and  _394
REMARK  168  A    between atoms: _394  and  _395
REMARK  169  A    between atoms: _404  and  _406
REMARK  170  A    between atoms: _406  and  _407
REMARK  171  A    between atoms: _410  and  _412
REMARK  172  A    between atoms: _412  and  _413
REMARK  173  A    between atoms: _412  and  _415
REMARK  174  A    between atoms: _415  and  _416
REMARK                            x       y       z     vdW  Elec       q    Type
REMARK                         _______ _______ _______ _____ _____    ______ ____
ROOT
ATOM      1  O   HOH     1      19.131  38.877  24.609  0.00  0.00    +0.000 OA
ENDROOT
TORSDOF 0
REMARK  Name = ../refined-set-2016/1q91/1q91_pocket.pdb
REMARK  174 active torsions:
REMARK  status: ('A' for Active; 'I' for Inactive)
REMARK    1  A    between atoms: _1  and  _3
REMARK    2  A    between atoms: _3  and  _4
REMARK    3  A    between atoms: _3  and  _6
REMARK    4  A    between atoms: _6  and  _7
REMARK    5  A    between atoms: _10  and  _12
REMARK    6  A    between atoms: _12  and  _13
REMARK    7  A    between atoms: _12  and  _15
REMARK    8  A    between atoms: _15  and  _16
REMARK    9  A    between atoms: _16  and  _17
REMARK   10  A    between atoms: _19  and  _21
REMARK   11  A    between atoms: _21  and  _22
REMARK   12  A    between atoms: _21  and  _24
REMARK   13  A    between atoms: _22  and  _23
REMARK   14  A    between atoms: _22  and  _28
REMARK   15  A    between atoms: _23  and  MG_421
REMARK   16  A    between atoms: _24  and  _25
REMARK   17  A    between atoms: _28  and  _30
REMARK   18  A    between atoms: _30  and  _31
REMARK   19  A    between atoms: _33  and  _35
REMARK   20  A    between atoms: _35  and  _36
REMARK   21  A    between atoms: _35  and  _38
REMARK   22  A    between atoms: _38  and  _39
REMARK   23  A    between atoms: _45  and  _47
REMARK   24  A    between atoms: _47  and  _48
REMARK   25  A    between atoms: _47  and  _50
REMARK   26  A    between atoms: _50  and  _51
REMARK   27  A    between atoms: _51  and  _52
REMARK   28  A    between atoms: _55  and  _57
REMARK   29  A    between atoms: _57  and  _58
REMARK   30  A    between atoms: _57  and  _60
REMARK   31  A    between atoms: _60  and  _61
REMARK   32  A    between atoms: _67  and  _69
REMARK   33  A    between atoms: _69  and  _70
REMARK   34  A    between atoms: _69  and  _72
REMARK   35  A    between atoms: _72  and  _73
REMARK   36  A    between atoms: _73  and  _74
REMARK   37  A    between atoms: _74  and  _75
REMARK   38  A    between atoms: _84  and  _86
REMARK   39  A    between atoms: _86  and  _87
REMARK   40  A    between atoms: _89  and  _91
REMARK   41  A    between atoms: _91  and  _92
REMARK   42  A    between atoms: _91  and  _94
REMARK   43  A    between atoms: _94  and  _95
REMARK   44  A    between atoms: _101  and  _103
REMARK   45  A    between atoms: _103  and  _104
REMARK   46  A    between atoms: _103  and  _106
REMARK   47  A    between atoms: _106  and  _107
REMARK   48  A    between atoms: _117  and  _119
REMARK   49  A    between atoms: _119  and  _120
REMARK   50  A    between atoms: _119  and  _122
REMARK   51  A    between atoms: _125  and  _127
REMARK   52  A    between atoms: _127  and  _128
REMARK   53  A    between atoms: _127  and  _130
REMARK   54  A    between atoms: _130  and  _131
REMARK   55  A    between atoms: _133  and  _135
REMARK   56  A    between atoms: _135  and  _136
REMARK   57  A    between atoms: _135  and  _138
REMARK   58  A    between atoms: _138  and  _139
REMARK   59  A    between atoms: _139  and  _140
REMARK   60  A    between atoms: _143  and  _145
REMARK   61  A    between atoms: _145  and  _146
REMARK   62  A    between atoms: _145  and  _148
REMARK   63  A    between atoms: _148  and  _149
REMARK   64  A    between atoms: _149  and  _150
REMARK   65  A    between atoms: _155  and  _157
REMARK   66  A    between atoms: _157  and  _158
REMARK   67  A    between atoms: _157  and  _160
REMARK   68  A    between atoms: _160  and  _161
REMARK   69  A    between atoms: _166  and  _167
REMARK   70  A    between atoms: _169  and  _171
REMARK   71  A    between atoms: _171  and  _172
REMARK   72  A    between atoms: _175  and  _177
REMARK   73  A    between atoms: _177  and  _178
REMARK   74  A    between atoms: _177  and  _180
REMARK   75  A    between atoms: _180  and  _181
REMARK   76  A    between atoms: _184  and  _186
REMARK   77  A    between atoms: _186  and  _187
REMARK   78  A    between atoms: _186  and  _189
REMARK   79  A    between atoms: _189  and  _190
REMARK   80  A    between atoms: _200  and  _202
REMARK   81  A    between atoms: _202  and  _203
REMARK   82  A    between atoms: _202  and  _205
REMARK   83  A    between atoms: _205  and  _206
REMARK   84  A    between atoms: _206  and  _207
REMARK   85  A    between atoms: _210  and  _212
REMARK   86  A    between atoms: _212  and  _213
REMARK   87  A    between atoms: _212  and  _215
REMARK   88  A    between atoms: _215  and  _216
REMARK   89  A    between atoms: _222  and  _224
REMARK   90  A    between atoms: _224  and  _225
REMARK   91  A    between atoms: _224  and  _227
REMARK   92  A    between atoms: _227  and  _228
REMARK   93  A    between atoms: _234  and  _236
REMARK   94  A    between atoms: _236  and  _237
REMARK   95  A    between atoms: _236  and  _239
REMARK   96  A    between atoms: _239  and  _240
REMARK   97  A    between atoms: _243  and  _245
REMARK   98  A    between atoms: _245  and  _246
REMARK   99  A    between atoms: _245  and  _248
REMARK  100  A    between atoms: _248  and  _249
REMARK  101  A    between atoms: _252  and  _253
REMARK  102  A    between atoms: _258  and  _260
REMARK  103  A    between atoms: _260  and  _261
REMARK  104  A    between atoms: _260  and  _263
REMARK  105  A    between atoms: _263  and  _264
REMARK  106  A    between atoms: _267  and  _269
REMARK  107  A    between atoms: _269  and  _270
REMARK  108  A    between atoms: _269  and  _272
REMARK  109  A    between atoms: _272  and  _273
REMARK  110  A    between atoms: _273  and  _274
REMARK  111  A    between atoms: _274  and  _275
REMARK  112  A    between atoms: _275  and  _276
REMARK  113  A    between atoms: _280  and  _282
REMARK  114  A    between atoms: _282  and  _283
REMARK  115  A    between atoms: _282  and  _285
REMARK  116  A    between atoms: _285  and  _286
REMARK  117  A    between atoms: _286  and  _287
REMARK  118  A    between atoms: _289  and  _291
REMARK  119  A    between atoms: _291  and  _292
REMARK  120  A    between atoms: _291  and  _294
REMARK  121  A    between atoms: _294  and  _295
REMARK  122  A    between atoms: _301  and  _303
REMARK  123  A    between atoms: _303  and  _304
REMARK  124  A    between atoms: _303  and  _306
REMARK  125  A    between atoms: _308  and  _310
REMARK  126  A    between atoms: _310  and  _311
REMARK  127  A    between atoms: _310  and  _313
REMARK  128  A    between atoms: _313  and  _314
REMARK  129  A    between atoms: _314  and  _315
REMARK  130  A    between atoms: _315  and  _316
REMARK  131  A    between atoms: _316  and  _317
REMARK  132  A    between atoms: _321  and  _323
REMARK  133  A    between atoms: _323  and  _324
REMARK  134  A    between atoms: _323  and  _326
REMARK  135  A    between atoms: _326  and  _327
REMARK  136  A    between atoms: _330  and  _332
REMARK  137  A    between atoms: _332  and  _333
REMARK  138  A    between atoms: _332  and  _335
REMARK  139  A    between atoms: _335  and  _336
REMARK  140  A    between atoms: _336  and  _337
REMARK  141  A    between atoms: _337  and  _338
REMARK  142  A    between atoms: _347  and  _349
REMARK  143  A    between atoms: _349  and  _350
REMARK  144  A    between atoms: _349  and  _352
REMARK  145  A    between atoms: _352  and  _353
REMARK  146  A    between atoms: _356  and  _358
REMARK  147  A    between atoms: _358  and  _359
REMARK  148  A    between atoms: _358  and  _361
REMARK  149  A    between atoms: _361  and  _362
REMARK  150  A    between atoms: _362  and  _363
REMARK  151  A    between atoms: _363  and  _364
REMARK  152  A    between atoms: _364  and  _365
REMARK  153  A    between atoms: _369  and  _371
REMARK  154  A    between atoms: _371  and  _372
REMARK  155  A    between atoms: _371  and  _374
REMARK  156  A    between atoms: _374  and  _375
REMARK  157  A    between atoms: _378  and  _380
REMARK  158  A    between atoms: _380  and  _381
REMARK  159  A    between atoms: _380  and  _383
REMARK  160  A    between atoms: _383  and  _384
REMARK  161  A    between atoms: _384  and  _385
REMARK  162  A    between atoms: _385  and  MG_421
REMARK  163  A    between atoms: _387  and  _389
REMARK  164  A    between atoms: _389  and  _390
REMARK  165  A    between atoms: _389  and  _392
REMARK  166  A    between atoms: _392  and  _393
REMARK  167  A    between atoms: _393  and  _394
REMARK  168  A    between atoms: _394  and  _395
REMARK  169  A    between atoms: _404  and  _406
REMARK  170  A    between atoms: _406  and  _407
REMARK  171  A    between atoms: _410  and  _412
REMARK  172  A    between atoms: _412  and  _413
REMARK  173  A    between atoms: _412  and  _415
REMARK  174  A    between atoms: _415  and  _416
REMARK                            x       y       z     vdW  Elec       q    Type
REMARK                         _______ _______ _______ _____ _____    ______ ____
ROOT
ATOM      1  O   HOH     1      19.647  36.778  28.096  0.00  0.00    +0.000 OA
ENDROOT
TORSDOF 0
REMARK  Name = ../refined-set-2016/1q91/1q91_pocket.pdb
REMARK  174 active torsions:
REMARK  status: ('A' for Active; 'I' for Inactive)
REMARK    1  A    between atoms: _1  and  _3
REMARK    2  A    between atoms: _3  and  _4
REMARK    3  A    between atoms: _3  and  _6
REMARK    4  A    between atoms: _6  and  _7
REMARK    5  A    between atoms: _10  and  _12
REMARK    6  A    between atoms: _12  and  _13
REMARK    7  A    between atoms: _12  and  _15
REMARK    8  A    between atoms: _15  and  _16
REMARK    9  A    between atoms: _16  and  _17
REMARK   10  A    between atoms: _19  and  _21
REMARK   11  A    between atoms: _21  and  _22
REMARK   12  A    between atoms: _21  and  _24
REMARK   13  A    between atoms: _22  and  _23
REMARK   14  A    between atoms: _22  and  _28
REMARK   15  A    between atoms: _23  and  MG_421
REMARK   16  A    between atoms: _24  and  _25
REMARK   17  A    between atoms: _28  and  _30
REMARK   18  A    between atoms: _30  and  _31
REMARK   19  A    between atoms: _33  and  _35
REMARK   20  A    between atoms: _35  and  _36
REMARK   21  A    between atoms: _35  and  _38
REMARK   22  A    between atoms: _38  and  _39
REMARK   23  A    between atoms: _45  and  _47
REMARK   24  A    between atoms: _47  and  _48
REMARK   25  A    between atoms: _47  and  _50
REMARK   26  A    between atoms: _50  and  _51
REMARK   27  A    between atoms: _51  and  _52
REMARK   28  A    between atoms: _55  and  _57
REMARK   29  A    between atoms: _57  and  _58
REMARK   30  A    between atoms: _57  and  _60
REMARK   31  A    between atoms: _60  and  _61
REMARK   32  A    between atoms: _67  and  _69
REMARK   33  A    between atoms: _69  and  _70
REMARK   34  A    between atoms: _69  and  _72
REMARK   35  A    between atoms: _72  and  _73
REMARK   36  A    between atoms: _73  and  _74
REMARK   37  A    between atoms: _74  and  _75
REMARK   38  A    between atoms: _84  and  _86
REMARK   39  A    between atoms: _86  and  _87
REMARK   40  A    between atoms: _89  and  _91
REMARK   41  A    between atoms: _91  and  _92
REMARK   42  A    between atoms: _91  and  _94
REMARK   43  A    between atoms: _94  and  _95
REMARK   44  A    between atoms: _101  and  _103
REMARK   45  A    between atoms: _103  and  _104
REMARK   46  A    between atoms: _103  and  _106
REMARK   47  A    between atoms: _106  and  _107
REMARK   48  A    between atoms: _117  and  _119
REMARK   49  A    between atoms: _119  and  _120
REMARK   50  A    between atoms: _119  and  _122
REMARK   51  A    between atoms: _125  and  _127
REMARK   52  A    between atoms: _127  and  _128
REMARK   53  A    between atoms: _127  and  _130
REMARK   54  A    between atoms: _130  and  _131
REMARK   55  A    between atoms: _133  and  _135
REMARK   56  A    between atoms: _135  and  _136
REMARK   57  A    between atoms: _135  and  _138
REMARK   58  A    between atoms: _138  and  _139
REMARK   59  A    between atoms: _139  and  _140
REMARK   60  A    between atoms: _143  and  _145
REMARK   61  A    between atoms: _145  and  _146
REMARK   62  A    between atoms: _145  and  _148
REMARK   63  A    between atoms: _148  and  _149
REMARK   64  A    between atoms: _149  and  _150
REMARK   65  A    between atoms: _155  and  _157
REMARK   66  A    between atoms: _157  and  _158
REMARK   67  A    between atoms: _157  and  _160
REMARK   68  A    between atoms: _160  and  _161
REMARK   69  A    between atoms: _166  and  _167
REMARK   70  A    between atoms: _169  and  _171
REMARK   71  A    between atoms: _171  and  _172
REMARK   72  A    between atoms: _175  and  _177
REMARK   73  A    between atoms: _177  and  _178
REMARK   74  A    between atoms: _177  and  _180
REMARK   75  A    between atoms: _180  and  _181
REMARK   76  A    between atoms: _184  and  _186
REMARK   77  A    between atoms: _186  and  _187
REMARK   78  A    between atoms: _186  and  _189
REMARK   79  A    between atoms: _189  and  _190
REMARK   80  A    between atoms: _200  and  _202
REMARK   81  A    between atoms: _202  and  _203
REMARK   82  A    between atoms: _202  and  _205
REMARK   83  A    between atoms: _205  and  _206
REMARK   84  A    between atoms: _206  and  _207
REMARK   85  A    between atoms: _210  and  _212
REMARK   86  A    between atoms: _212  and  _213
REMARK   87  A    between atoms: _212  and  _215
REMARK   88  A    between atoms: _215  and  _216
REMARK   89  A    between atoms: _222  and  _224
REMARK   90  A    between atoms: _224  and  _225
REMARK   91  A    between atoms: _224  and  _227
REMARK   92  A    between atoms: _227  and  _228
REMARK   93  A    between atoms: _234  and  _236
REMARK   94  A    between atoms: _236  and  _237
REMARK   95  A    between atoms: _236  and  _239
REMARK   96  A    between atoms: _239  and  _240
REMARK   97  A    between atoms: _243  and  _245
REMARK   98  A    between atoms: _245  and  _246
REMARK   99  A    between atoms: _245  and  _248
REMARK  100  A    between atoms: _248  and  _249
REMARK  101  A    between atoms: _252  and  _253
REMARK  102  A    between atoms: _258  and  _260
REMARK  103  A    between atoms: _260  and  _261
REMARK  104  A    between atoms: _260  and  _263
REMARK  105  A    between atoms: _263  and  _264
REMARK  106  A    between atoms: _267  and  _269
REMARK  107  A    between atoms: _269  and  _270
REMARK  108  A    between atoms: _269  and  _272
REMARK  109  A    between atoms: _272  and  _273
REMARK  110  A    between atoms: _273  and  _274
REMARK  111  A    between atoms: _274  and  _275
REMARK  112  A    between atoms: _275  and  _276
REMARK  113  A    between atoms: _280  and  _282
REMARK  114  A    between atoms: _282  and  _283
REMARK  115  A    between atoms: _282  and  _285
REMARK  116  A    between atoms: _285  and  _286
REMARK  117  A    between atoms: _286  and  _287
REMARK  118  A    between atoms: _289  and  _291
REMARK  119  A    between atoms: _291  and  _292
REMARK  120  A    between atoms: _291  and  _294
REMARK  121  A    between atoms: _294  and  _295
REMARK  122  A    between atoms: _301  and  _303
REMARK  123  A    between atoms: _303  and  _304
REMARK  124  A    between atoms: _303  and  _306
REMARK  125  A    between atoms: _308  and  _310
REMARK  126  A    between atoms: _310  and  _311
REMARK  127  A    between atoms: _310  and  _313
REMARK  128  A    between atoms: _313  and  _314
REMARK  129  A    between atoms: _314  and  _315
REMARK  130  A    between atoms: _315  and  _316
REMARK  131  A    between atoms: _316  and  _317
REMARK  132  A    between atoms: _321  and  _323
REMARK  133  A    between atoms: _323  and  _324
REMARK  134  A    between atoms: _323  and  _326
REMARK  135  A    between atoms: _326  and  _327
REMARK  136  A    between atoms: _330  and  _332
REMARK  137  A    between atoms: _332  and  _333
REMARK  138  A    between atoms: _332  and  _335
REMARK  139  A    between atoms: _335  and  _336
REMARK  140  A    between atoms: _336  and  _337
REMARK  141  A    between atoms: _337  and  _338
REMARK  142  A    between atoms: _347  and  _349
REMARK  143  A    between atoms: _349  and  _350
REMARK  144  A    between atoms: _349  and  _352
REMARK  145  A    between atoms: _352  and  _353
REMARK  146  A    between atoms: _356  and  _358
REMARK  147  A    between atoms: _358  and  _359
REMARK  148  A    between atoms: _358  and  _361
REMARK  149  A    between atoms: _361  and  _362
REMARK  150  A    between atoms: _362  and  _363
REMARK  151  A    between atoms: _363  and  _364
REMARK  152  A    between atoms: _364  and  _365
REMARK  153  A    between atoms: _369  and  _371
REMARK  154  A    between atoms: _371  and  _372
REMARK  155  A    between atoms: _371  and  _374
REMARK  156  A    between atoms: _374  and  _375
REMARK  157  A    between atoms: _378  and  _380
REMARK  158  A    between atoms: _380  and  _381
REMARK  159  A    between atoms: _380  and  _383
REMARK  160  A    between atoms: _383  and  _384
REMARK  161  A    between atoms: _384  and  _385
REMARK  162  A    between atoms: _385  and  MG_421
REMARK  163  A    between atoms: _387  and  _389
REMARK  164  A    between atoms: _389  and  _390
REMARK  165  A    between atoms: _389  and  _392
REMARK  166  A    between atoms: _392  and  _393
REMARK  167  A    between atoms: _393  and  _394
REMARK  168  A    between atoms: _394  and  _395
REMARK  169  A    between atoms: _404  and  _406
REMARK  170  A    between atoms: _406  and  _407
REMARK  171  A    between atoms: _410  and  _412
REMARK  172  A    between atoms: _412  and  _413
REMARK  173  A    between atoms: _412  and  _415
REMARK  174  A    between atoms: _415  and  _416
REMARK                            x       y       z     vdW  Elec       q    Type
REMARK                         _______ _______ _______ _____ _____    ______ ____
ROOT
ATOM      1  O   HOH     1      19.965  34.543  23.576  0.00  0.00    +0.000 OA
ENDROOT
TORSDOF 0
REMARK  Name = ../refined-set-2016/1q91/1q91_pocket.pdb
REMARK  174 active torsions:
REMARK  status: ('A' for Active; 'I' for Inactive)
REMARK    1  A    between atoms: _1  and  _3
REMARK    2  A    between atoms: _3  and  _4
REMARK    3  A    between atoms: _3  and  _6
REMARK    4  A    between atoms: _6  and  _7
REMARK    5  A    between atoms: _10  and  _12
REMARK    6  A    between atoms: _12  and  _13
REMARK    7  A    between atoms: _12  and  _15
REMARK    8  A    between atoms: _15  and  _16
REMARK    9  A    between atoms: _16  and  _17
REMARK   10  A    between atoms: _19  and  _21
REMARK   11  A    between atoms: _21  and  _22
REMARK   12  A    between atoms: _21  and  _24
REMARK   13  A    between atoms: _22  and  _23
REMARK   14  A    between atoms: _22  and  _28
REMARK   15  A    between atoms: _23  and  MG_421
REMARK   16  A    between atoms: _24  and  _25
REMARK   17  A    between atoms: _28  and  _30
REMARK   18  A    between atoms: _30  and  _31
REMARK   19  A    between atoms: _33  and  _35
REMARK   20  A    between atoms: _35  and  _36
REMARK   21  A    between atoms: _35  and  _38
REMARK   22  A    between atoms: _38  and  _39
REMARK   23  A    between atoms: _45  and  _47
REMARK   24  A    between atoms: _47  and  _48
REMARK   25  A    between atoms: _47  and  _50
REMARK   26  A    between atoms: _50  and  _51
REMARK   27  A    between atoms: _51  and  _52
REMARK   28  A    between atoms: _55  and  _57
REMARK   29  A    between atoms: _57  and  _58
REMARK   30  A    between atoms: _57  and  _60
REMARK   31  A    between atoms: _60  and  _61
REMARK   32  A    between atoms: _67  and  _69
REMARK   33  A    between atoms: _69  and  _70
REMARK   34  A    between atoms: _69  and  _72
REMARK   35  A    between atoms: _72  and  _73
REMARK   36  A    between atoms: _73  and  _74
REMARK   37  A    between atoms: _74  and  _75
REMARK   38  A    between atoms: _84  and  _86
REMARK   39  A    between atoms: _86  and  _87
REMARK   40  A    between atoms: _89  and  _91
REMARK   41  A    between atoms: _91  and  _92
REMARK   42  A    between atoms: _91  and  _94
REMARK   43  A    between atoms: _94  and  _95
REMARK   44  A    between atoms: _101  and  _103
REMARK   45  A    between atoms: _103  and  _104
REMARK   46  A    between atoms: _103  and  _106
REMARK   47  A    between atoms: _106  and  _107
REMARK   48  A    between atoms: _117  and  _119
REMARK   49  A    between atoms: _119  and  _120
REMARK   50  A    between atoms: _119  and  _122
REMARK   51  A    between atoms: _125  and  _127
REMARK   52  A    between atoms: _127  and  _128
REMARK   53  A    between atoms: _127  and  _130
REMARK   54  A    between atoms: _130  and  _131
REMARK   55  A    between atoms: _133  and  _135
REMARK   56  A    between atoms: _135  and  _136
REMARK   57  A    between atoms: _135  and  _138
REMARK   58  A    between atoms: _138  and  _139
REMARK   59  A    between atoms: _139  and  _140
REMARK   60  A    between atoms: _143  and  _145
REMARK   61  A    between atoms: _145  and  _146
REMARK   62  A    between atoms: _145  and  _148
REMARK   63  A    between atoms: _148  and  _149
REMARK   64  A    between atoms: _149  and  _150
REMARK   65  A    between atoms: _155  and  _157
REMARK   66  A    between atoms: _157  and  _158
REMARK   67  A    between atoms: _157  and  _160
REMARK   68  A    between atoms: _160  and  _161
REMARK   69  A    between atoms: _166  and  _167
REMARK   70  A    between atoms: _169  and  _171
REMARK   71  A    between atoms: _171  and  _172
REMARK   72  A    between atoms: _175  and  _177
REMARK   73  A    between atoms: _177  and  _178
REMARK   74  A    between atoms: _177  and  _180
REMARK   75  A    between atoms: _180  and  _181
REMARK   76  A    between atoms: _184  and  _186
REMARK   77  A    between atoms: _186  and  _187
REMARK   78  A    between atoms: _186  and  _189
REMARK   79  A    between atoms: _189  and  _190
REMARK   80  A    between atoms: _200  and  _202
REMARK   81  A    between atoms: _202  and  _203
REMARK   82  A    between atoms: _202  and  _205
REMARK   83  A    between atoms: _205  and  _206
REMARK   84  A    between atoms: _206  and  _207
REMARK   85  A    between atoms: _210  and  _212
REMARK   86  A    between atoms: _212  and  _213
REMARK   87  A    between atoms: _212  and  _215
REMARK   88  A    between atoms: _215  and  _216
REMARK   89  A    between atoms: _222  and  _224
REMARK   90  A    between atoms: _224  and  _225
REMARK   91  A    between atoms: _224  and  _227
REMARK   92  A    between atoms: _227  and  _228
REMARK   93  A    between atoms: _234  and  _236
REMARK   94  A    between atoms: _236  and  _237
REMARK   95  A    between atoms: _236  and  _239
REMARK   96  A    between atoms: _239  and  _240
REMARK   97  A    between atoms: _243  and  _245
REMARK   98  A    between atoms: _245  and  _246
REMARK   99  A    between atoms: _245  and  _248
REMARK  100  A    between atoms: _248  and  _249
REMARK  101  A    between atoms: _252  and  _253
REMARK  102  A    between atoms: _258  and  _260
REMARK  103  A    between atoms: _260  and  _261
REMARK  104  A    between atoms: _260  and  _263
REMARK  105  A    between atoms: _263  and  _264
REMARK  106  A    between atoms: _267  and  _269
REMARK  107  A    between atoms: _269  and  _270
REMARK  108  A    between atoms: _269  and  _272
REMARK  109  A    between atoms: _272  and  _273
REMARK  110  A    between atoms: _273  and  _274
REMARK  111  A    between atoms: _274  and  _275
REMARK  112  A    between atoms: _275  and  _276
REMARK  113  A    between atoms: _280  and  _282
REMARK  114  A    between atoms: _282  and  _283
REMARK  115  A    between atoms: _282  and  _285
REMARK  116  A    between atoms: _285  and  _286
REMARK  117  A    between atoms: _286  and  _287
REMARK  118  A    between atoms: _289  and  _291
REMARK  119  A    between atoms: _291  and  _292
REMARK  120  A    between atoms: _291  and  _294
REMARK  121  A    between atoms: _294  and  _295
REMARK  122  A    between atoms: _301  and  _303
REMARK  123  A    between atoms: _303  and  _304
REMARK  124  A    between atoms: _303  and  _306
REMARK  125  A    between atoms: _308  and  _310
REMARK  126  A    between atoms: _310  and  _311
REMARK  127  A    between atoms: _310  and  _313
REMARK  128  A    between atoms: _313  and  _314
REMARK  129  A    between atoms: _314  and  _315
REMARK  130  A    between atoms: _315  and  _316
REMARK  131  A    between atoms: _316  and  _317
REMARK  132  A    between atoms: _321  and  _323
REMARK  133  A    between atoms: _323  and  _324
REMARK  134  A    between atoms: _323  and  _326
REMARK  135  A    between atoms: _326  and  _327
REMARK  136  A    between atoms: _330  and  _332
REMARK  137  A    between atoms: _332  and  _333
REMARK  138  A    between atoms: _332  and  _335
REMARK  139  A    between atoms: _335  and  _336
REMARK  140  A    between atoms: _336  and  _337
REMARK  141  A    between atoms: _337  and  _338
REMARK  142  A    between atoms: _347  and  _349
REMARK  143  A    between atoms: _349  and  _350
REMARK  144  A    between atoms: _349  and  _352
REMARK  145  A    between atoms: _352  and  _353
REMARK  146  A    between atoms: _356  and  _358
REMARK  147  A    between atoms: _358  and  _359
REMARK  148  A    between atoms: _358  and  _361
REMARK  149  A    between atoms: _361  and  _362
REMARK  150  A    between atoms: _362  and  _363
REMARK  151  A    between atoms: _363  and  _364
REMARK  152  A    between atoms: _364  and  _365
REMARK  153  A    between atoms: _369  and  _371
REMARK  154  A    between atoms: _371  and  _372
REMARK  155  A    between atoms: _371  and  _374
REMARK  156  A    between atoms: _374  and  _375
REMARK  157  A    between atoms: _378  and  _380
REMARK  158  A    between atoms: _380  and  _381
REMARK  159  A    between atoms: _380  and  _383
REMARK  160  A    between atoms: _383  and  _384
REMARK  161  A    between atoms: _384  and  _385
REMARK  162  A    between atoms: _385  and  MG_421
REMARK  163  A    between atoms: _387  and  _389
REMARK  164  A    between atoms: _389  and  _390
REMARK  165  A    between atoms: _389  and  _392
REMARK  166  A    between atoms: _392  and  _393
REMARK  167  A    between atoms: _393  and  _394
REMARK  168  A    between atoms: _394  and  _395
REMARK  169  A    between atoms: _404  and  _406
REMARK  170  A    between atoms: _406  and  _407
REMARK  171  A    between atoms: _410  and  _412
REMARK  172  A    between atoms: _412  and  _413
REMARK  173  A    between atoms: _412  and  _415
REMARK  174  A    between atoms: _415  and  _416
REMARK                            x       y       z     vdW  Elec       q    Type
REMARK                         _______ _______ _______ _____ _____    ______ ____
ROOT
ATOM      1  O   HOH     1       3.424  37.732  32.904  0.00  0.00    +0.000 OA
ENDROOT
TORSDOF 0
REMARK  Name = ../refined-set-2016/1q91/1q91_pocket.pdb
REMARK  174 active torsions:
REMARK  status: ('A' for Active; 'I' for Inactive)
REMARK    1  A    between atoms: _1  and  _3
REMARK    2  A    between atoms: _3  and  _4
REMARK    3  A    between atoms: _3  and  _6
REMARK    4  A    between atoms: _6  and  _7
REMARK    5  A    between atoms: _10  and  _12
REMARK    6  A    between atoms: _12  and  _13
REMARK    7  A    between atoms: _12  and  _15
REMARK    8  A    between atoms: _15  and  _16
REMARK    9  A    between atoms: _16  and  _17
REMARK   10  A    between atoms: _19  and  _21
REMARK   11  A    between atoms: _21  and  _22
REMARK   12  A    between atoms: _21  and  _24
REMARK   13  A    between atoms: _22  and  _23
REMARK   14  A    between atoms: _22  and  _28
REMARK   15  A    between atoms: _23  and  MG_421
REMARK   16  A    between atoms: _24  and  _25
REMARK   17  A    between atoms: _28  and  _30
REMARK   18  A    between atoms: _30  and  _31
REMARK   19  A    between atoms: _33  and  _35
REMARK   20  A    between atoms: _35  and  _36
REMARK   21  A    between atoms: _35  and  _38
REMARK   22  A    between atoms: _38  and  _39
REMARK   23  A    between atoms: _45  and  _47
REMARK   24  A    between atoms: _47  and  _48
REMARK   25  A    between atoms: _47  and  _50
REMARK   26  A    between atoms: _50  and  _51
REMARK   27  A    between atoms: _51  and  _52
REMARK   28  A    between atoms: _55  and  _57
REMARK   29  A    between atoms: _57  and  _58
REMARK   30  A    between atoms: _57  and  _60
REMARK   31  A    between atoms: _60  and  _61
REMARK   32  A    between atoms: _67  and  _69
REMARK   33  A    between atoms: _69  and  _70
REMARK   34  A    between atoms: _69  and  _72
REMARK   35  A    between atoms: _72  and  _73
REMARK   36  A    between atoms: _73  and  _74
REMARK   37  A    between atoms: _74  and  _75
REMARK   38  A    between atoms: _84  and  _86
REMARK   39  A    between atoms: _86  and  _87
REMARK   40  A    between atoms: _89  and  _91
REMARK   41  A    between atoms: _91  and  _92
REMARK   42  A    between atoms: _91  and  _94
REMARK   43  A    between atoms: _94  and  _95
REMARK   44  A    between atoms: _101  and  _103
REMARK   45  A    between atoms: _103  and  _104
REMARK   46  A    between atoms: _103  and  _106
REMARK   47  A    between atoms: _106  and  _107
REMARK   48  A    between atoms: _117  and  _119
REMARK   49  A    between atoms: _119  and  _120
REMARK   50  A    between atoms: _119  and  _122
REMARK   51  A    between atoms: _125  and  _127
REMARK   52  A    between atoms: _127  and  _128
REMARK   53  A    between atoms: _127  and  _130
REMARK   54  A    between atoms: _130  and  _131
REMARK   55  A    between atoms: _133  and  _135
REMARK   56  A    between atoms: _135  and  _136
REMARK   57  A    between atoms: _135  and  _138
REMARK   58  A    between atoms: _138  and  _139
REMARK   59  A    between atoms: _139  and  _140
REMARK   60  A    between atoms: _143  and  _145
REMARK   61  A    between atoms: _145  and  _146
REMARK   62  A    between atoms: _145  and  _148
REMARK   63  A    between atoms: _148  and  _149
REMARK   64  A    between atoms: _149  and  _150
REMARK   65  A    between atoms: _155  and  _157
REMARK   66  A    between atoms: _157  and  _158
REMARK   67  A    between atoms: _157  and  _160
REMARK   68  A    between atoms: _160  and  _161
REMARK   69  A    between atoms: _166  and  _167
REMARK   70  A    between atoms: _169  and  _171
REMARK   71  A    between atoms: _171  and  _172
REMARK   72  A    between atoms: _175  and  _177
REMARK   73  A    between atoms: _177  and  _178
REMARK   74  A    between atoms: _177  and  _180
REMARK   75  A    between atoms: _180  and  _181
REMARK   76  A    between atoms: _184  and  _186
REMARK   77  A    between atoms: _186  and  _187
REMARK   78  A    between atoms: _186  and  _189
REMARK   79  A    between atoms: _189  and  _190
REMARK   80  A    between atoms: _200  and  _202
REMARK   81  A    between atoms: _202  and  _203
REMARK   82  A    between atoms: _202  and  _205
REMARK   83  A    between atoms: _205  and  _206
REMARK   84  A    between atoms: _206  and  _207
REMARK   85  A    between atoms: _210  and  _212
REMARK   86  A    between atoms: _212  and  _213
REMARK   87  A    between atoms: _212  and  _215
REMARK   88  A    between atoms: _215  and  _216
REMARK   89  A    between atoms: _222  and  _224
REMARK   90  A    between atoms: _224  and  _225
REMARK   91  A    between atoms: _224  and  _227
REMARK   92  A    between atoms: _227  and  _228
REMARK   93  A    between atoms: _234  and  _236
REMARK   94  A    between atoms: _236  and  _237
REMARK   95  A    between atoms: _236  and  _239
REMARK   96  A    between atoms: _239  and  _240
REMARK   97  A    between atoms: _243  and  _245
REMARK   98  A    between atoms: _245  and  _246
REMARK   99  A    between atoms: _245  and  _248
REMARK  100  A    between atoms: _248  and  _249
REMARK  101  A    between atoms: _252  and  _253
REMARK  102  A    between atoms: _258  and  _260
REMARK  103  A    between atoms: _260  and  _261
REMARK  104  A    between atoms: _260  and  _263
REMARK  105  A    between atoms: _263  and  _264
REMARK  106  A    between atoms: _267  and  _269
REMARK  107  A    between atoms: _269  and  _270
REMARK  108  A    between atoms: _269  and  _272
REMARK  109  A    between atoms: _272  and  _273
REMARK  110  A    between atoms: _273  and  _274
REMARK  111  A    between atoms: _274  and  _275
REMARK  112  A    between atoms: _275  and  _276
REMARK  113  A    between atoms: _280  and  _282
REMARK  114  A    between atoms: _282  and  _283
REMARK  115  A    between atoms: _282  and  _285
REMARK  116  A    between atoms: _285  and  _286
REMARK  117  A    between atoms: _286  and  _287
REMARK  118  A    between atoms: _289  and  _291
REMARK  119  A    between atoms: _291  and  _292
REMARK  120  A    between atoms: _291  and  _294
REMARK  121  A    between atoms: _294  and  _295
REMARK  122  A    between atoms: _301  and  _303
REMARK  123  A    between atoms: _303  and  _304
REMARK  124  A    between atoms: _303  and  _306
REMARK  125  A    between atoms: _308  and  _310
REMARK  126  A    between atoms: _310  and  _311
REMARK  127  A    between atoms: _310  and  _313
REMARK  128  A    between atoms: _313  and  _314
REMARK  129  A    between atoms: _314  and  _315
REMARK  130  A    between atoms: _315  and  _316
REMARK  131  A    between atoms: _316  and  _317
REMARK  132  A    between atoms: _321  and  _323
REMARK  133  A    between atoms: _323  and  _324
REMARK  134  A    between atoms: _323  and  _326
REMARK  135  A    between atoms: _326  and  _327
REMARK  136  A    between atoms: _330  and  _332
REMARK  137  A    between atoms: _332  and  _333
REMARK  138  A    between atoms: _332  and  _335
REMARK  139  A    between atoms: _335  and  _336
REMARK  140  A    between atoms: _336  and  _337
REMARK  141  A    between atoms: _337  and  _338
REMARK  142  A    between atoms: _347  and  _349
REMARK  143  A    between atoms: _349  and  _350
REMARK  144  A    between atoms: _349  and  _352
REMARK  145  A    between atoms: _352  and  _353
REMARK  146  A    between atoms: _356  and  _358
REMARK  147  A    between atoms: _358  and  _359
REMARK  148  A    between atoms: _358  and  _361
REMARK  149  A    between atoms: _361  and  _362
REMARK  150  A    between atoms: _362  and  _363
REMARK  151  A    between atoms: _363  and  _364
REMARK  152  A    between atoms: _364  and  _365
REMARK  153  A    between atoms: _369  and  _371
REMARK  154  A    between atoms: _371  and  _372
REMARK  155  A    between atoms: _371  and  _374
REMARK  156  A    between atoms: _374  and  _375
REMARK  157  A    between atoms: _378  and  _380
REMARK  158  A    between atoms: _380  and  _381
REMARK  159  A    between atoms: _380  and  _383
REMARK  160  A    between atoms: _383  and  _384
REMARK  161  A    between atoms: _384  and  _385
REMARK  162  A    between atoms: _385  and  MG_421
REMARK  163  A    between atoms: _387  and  _389
REMARK  164  A    between atoms: _389  and  _390
REMARK  165  A    between atoms: _389  and  _392
REMARK  166  A    between atoms: _392  and  _393
REMARK  167  A    between atoms: _393  and  _394
REMARK  168  A    between atoms: _394  and  _395
REMARK  169  A    between atoms: _404  and  _406
REMARK  170  A    between atoms: _406  and  _407
REMARK  171  A    between atoms: _410  and  _412
REMARK  172  A    between atoms: _412  and  _413
REMARK  173  A    between atoms: _412  and  _415
REMARK  174  A    between atoms: _415  and  _416
REMARK                            x       y       z     vdW  Elec       q    Type
REMARK                         _______ _______ _______ _____ _____    ______ ____
ROOT
ATOM      1  O   HOH     1      16.496  38.251  25.707  0.00  0.00    +0.000 OA
ENDROOT
TORSDOF 0
REMARK  Name = ../refined-set-2016/1q91/1q91_pocket.pdb
REMARK  174 active torsions:
REMARK  status: ('A' for Active; 'I' for Inactive)
REMARK    1  A    between atoms: _1  and  _3
REMARK    2  A    between atoms: _3  and  _4
REMARK    3  A    between atoms: _3  and  _6
REMARK    4  A    between atoms: _6  and  _7
REMARK    5  A    between atoms: _10  and  _12
REMARK    6  A    between atoms: _12  and  _13
REMARK    7  A    between atoms: _12  and  _15
REMARK    8  A    between atoms: _15  and  _16
REMARK    9  A    between atoms: _16  and  _17
REMARK   10  A    between atoms: _19  and  _21
REMARK   11  A    between atoms: _21  and  _22
REMARK   12  A    between atoms: _21  and  _24
REMARK   13  A    between atoms: _22  and  _23
REMARK   14  A    between atoms: _22  and  _28
REMARK   15  A    between atoms: _23  and  MG_421
REMARK   16  A    between atoms: _24  and  _25
REMARK   17  A    between atoms: _28  and  _30
REMARK   18  A    between atoms: _30  and  _31
REMARK   19  A    between atoms: _33  and  _35
REMARK   20  A    between atoms: _35  and  _36
REMARK   21  A    between atoms: _35  and  _38
REMARK   22  A    between atoms: _38  and  _39
REMARK   23  A    between atoms: _45  and  _47
REMARK   24  A    between atoms: _47  and  _48
REMARK   25  A    between atoms: _47  and  _50
REMARK   26  A    between atoms: _50  and  _51
REMARK   27  A    between atoms: _51  and  _52
REMARK   28  A    between atoms: _55  and  _57
REMARK   29  A    between atoms: _57  and  _58
REMARK   30  A    between atoms: _57  and  _60
REMARK   31  A    between atoms: _60  and  _61
REMARK   32  A    between atoms: _67  and  _69
REMARK   33  A    between atoms: _69  and  _70
REMARK   34  A    between atoms: _69  and  _72
REMARK   35  A    between atoms: _72  and  _73
REMARK   36  A    between atoms: _73  and  _74
REMARK   37  A    between atoms: _74  and  _75
REMARK   38  A    between atoms: _84  and  _86
REMARK   39  A    between atoms: _86  and  _87
REMARK   40  A    between atoms: _89  and  _91
REMARK   41  A    between atoms: _91  and  _92
REMARK   42  A    between atoms: _91  and  _94
REMARK   43  A    between atoms: _94  and  _95
REMARK   44  A    between atoms: _101  and  _103
REMARK   45  A    between atoms: _103  and  _104
REMARK   46  A    between atoms: _103  and  _106
REMARK   47  A    between atoms: _106  and  _107
REMARK   48  A    between atoms: _117  and  _119
REMARK   49  A    between atoms: _119  and  _120
REMARK   50  A    between atoms: _119  and  _122
REMARK   51  A    between atoms: _125  and  _127
REMARK   52  A    between atoms: _127  and  _128
REMARK   53  A    between atoms: _127  and  _130
REMARK   54  A    between atoms: _130  and  _131
REMARK   55  A    between atoms: _133  and  _135
REMARK   56  A    between atoms: _135  and  _136
REMARK   57  A    between atoms: _135  and  _138
REMARK   58  A    between atoms: _138  and  _139
REMARK   59  A    between atoms: _139  and  _140
REMARK   60  A    between atoms: _143  and  _145
REMARK   61  A    between atoms: _145  and  _146
REMARK   62  A    between atoms: _145  and  _148
REMARK   63  A    between atoms: _148  and  _149
REMARK   64  A    between atoms: _149  and  _150
REMARK   65  A    between atoms: _155  and  _157
REMARK   66  A    between atoms: _157  and  _158
REMARK   67  A    between atoms: _157  and  _160
REMARK   68  A    between atoms: _160  and  _161
REMARK   69  A    between atoms: _166  and  _167
REMARK   70  A    between atoms: _169  and  _171
REMARK   71  A    between atoms: _171  and  _172
REMARK   72  A    between atoms: _175  and  _177
REMARK   73  A    between atoms: _177  and  _178
REMARK   74  A    between atoms: _177  and  _180
REMARK   75  A    between atoms: _180  and  _181
REMARK   76  A    between atoms: _184  and  _186
REMARK   77  A    between atoms: _186  and  _187
REMARK   78  A    between atoms: _186  and  _189
REMARK   79  A    between atoms: _189  and  _190
REMARK   80  A    between atoms: _200  and  _202
REMARK   81  A    between atoms: _202  and  _203
REMARK   82  A    between atoms: _202  and  _205
REMARK   83  A    between atoms: _205  and  _206
REMARK   84  A    between atoms: _206  and  _207
REMARK   85  A    between atoms: _210  and  _212
REMARK   86  A    between atoms: _212  and  _213
REMARK   87  A    between atoms: _212  and  _215
REMARK   88  A    between atoms: _215  and  _216
REMARK   89  A    between atoms: _222  and  _224
REMARK   90  A    between atoms: _224  and  _225
REMARK   91  A    between atoms: _224  and  _227
REMARK   92  A    between atoms: _227  and  _228
REMARK   93  A    between atoms: _234  and  _236
REMARK   94  A    between atoms: _236  and  _237
REMARK   95  A    between atoms: _236  and  _239
REMARK   96  A    between atoms: _239  and  _240
REMARK   97  A    between atoms: _243  and  _245
REMARK   98  A    between atoms: _245  and  _246
REMARK   99  A    between atoms: _245  and  _248
REMARK  100  A    between atoms: _248  and  _249
REMARK  101  A    between atoms: _252  and  _253
REMARK  102  A    between atoms: _258  and  _260
REMARK  103  A    between atoms: _260  and  _261
REMARK  104  A    between atoms: _260  and  _263
REMARK  105  A    between atoms: _263  and  _264
REMARK  106  A    between atoms: _267  and  _269
REMARK  107  A    between atoms: _269  and  _270
REMARK  108  A    between atoms: _269  and  _272
REMARK  109  A    between atoms: _272  and  _273
REMARK  110  A    between atoms: _273  and  _274
REMARK  111  A    between atoms: _274  and  _275
REMARK  112  A    between atoms: _275  and  _276
REMARK  113  A    between atoms: _280  and  _282
REMARK  114  A    between atoms: _282  and  _283
REMARK  115  A    between atoms: _282  and  _285
REMARK  116  A    between atoms: _285  and  _286
REMARK  117  A    between atoms: _286  and  _287
REMARK  118  A    between atoms: _289  and  _291
REMARK  119  A    between atoms: _291  and  _292
REMARK  120  A    between atoms: _291  and  _294
REMARK  121  A    between atoms: _294  and  _295
REMARK  122  A    between atoms: _301  and  _303
REMARK  123  A    between atoms: _303  and  _304
REMARK  124  A    between atoms: _303  and  _306
REMARK  125  A    between atoms: _308  and  _310
REMARK  126  A    between atoms: _310  and  _311
REMARK  127  A    between atoms: _310  and  _313
REMARK  128  A    between atoms: _313  and  _314
REMARK  129  A    between atoms: _314  and  _315
REMARK  130  A    between atoms: _315  and  _316
REMARK  131  A    between atoms: _316  and  _317
REMARK  132  A    between atoms: _321  and  _323
REMARK  133  A    between atoms: _323  and  _324
REMARK  134  A    between atoms: _323  and  _326
REMARK  135  A    between atoms: _326  and  _327
REMARK  136  A    between atoms: _330  and  _332
REMARK  137  A    between atoms: _332  and  _333
REMARK  138  A    between atoms: _332  and  _335
REMARK  139  A    between atoms: _335  and  _336
REMARK  140  A    between atoms: _336  and  _337
REMARK  141  A    between atoms: _337  and  _338
REMARK  142  A    between atoms: _347  and  _349
REMARK  143  A    between atoms: _349  and  _350
REMARK  144  A    between atoms: _349  and  _352
REMARK  145  A    between atoms: _352  and  _353
REMARK  146  A    between atoms: _356  and  _358
REMARK  147  A    between atoms: _358  and  _359
REMARK  148  A    between atoms: _358  and  _361
REMARK  149  A    between atoms: _361  and  _362
REMARK  150  A    between atoms: _362  and  _363
REMARK  151  A    between atoms: _363  and  _364
REMARK  152  A    between atoms: _364  and  _365
REMARK  153  A    between atoms: _369  and  _371
REMARK  154  A    between atoms: _371  and  _372
REMARK  155  A    between atoms: _371  and  _374
REMARK  156  A    between atoms: _374  and  _375
REMARK  157  A    between atoms: _378  and  _380
REMARK  158  A    between atoms: _380  and  _381
REMARK  159  A    between atoms: _380  and  _383
REMARK  160  A    between atoms: _383  and  _384
REMARK  161  A    between atoms: _384  and  _385
REMARK  162  A    between atoms: _385  and  MG_421
REMARK  163  A    between atoms: _387  and  _389
REMARK  164  A    between atoms: _389  and  _390
REMARK  165  A    between atoms: _389  and  _392
REMARK  166  A    between atoms: _392  and  _393
REMARK  167  A    between atoms: _393  and  _394
REMARK  168  A    between atoms: _394  and  _395
REMARK  169  A    between atoms: _404  and  _406
REMARK  170  A    between atoms: _406  and  _407
REMARK  171  A    between atoms: _410  and  _412
REMARK  172  A    between atoms: _412  and  _413
REMARK  173  A    between atoms: _412  and  _415
REMARK  174  A    between atoms: _415  and  _416
REMARK                            x       y       z     vdW  Elec       q    Type
REMARK                         _______ _______ _______ _____ _____    ______ ____
ROOT
ATOM      1  O   HOH     1      20.345  36.599  25.429  0.00  0.00    +0.000 OA
ENDROOT
TORSDOF 0
REMARK  Name = ../refined-set-2016/1q91/1q91_pocket.pdb
REMARK  174 active torsions:
REMARK  status: ('A' for Active; 'I' for Inactive)
REMARK    1  A    between atoms: _1  and  _3
REMARK    2  A    between atoms: _3  and  _4
REMARK    3  A    between atoms: _3  and  _6
REMARK    4  A    between atoms: _6  and  _7
REMARK    5  A    between atoms: _10  and  _12
REMARK    6  A    between atoms: _12  and  _13
REMARK    7  A    between atoms: _12  and  _15
REMARK    8  A    between atoms: _15  and  _16
REMARK    9  A    between atoms: _16  and  _17
REMARK   10  A    between atoms: _19  and  _21
REMARK   11  A    between atoms: _21  and  _22
REMARK   12  A    between atoms: _21  and  _24
REMARK   13  A    between atoms: _22  and  _23
REMARK   14  A    between atoms: _22  and  _28
REMARK   15  A    between atoms: _23  and  MG_421
REMARK   16  A    between atoms: _24  and  _25
REMARK   17  A    between atoms: _28  and  _30
REMARK   18  A    between atoms: _30  and  _31
REMARK   19  A    between atoms: _33  and  _35
REMARK   20  A    between atoms: _35  and  _36
REMARK   21  A    between atoms: _35  and  _38
REMARK   22  A    between atoms: _38  and  _39
REMARK   23  A    between atoms: _45  and  _47
REMARK   24  A    between atoms: _47  and  _48
REMARK   25  A    between atoms: _47  and  _50
REMARK   26  A    between atoms: _50  and  _51
REMARK   27  A    between atoms: _51  and  _52
REMARK   28  A    between atoms: _55  and  _57
REMARK   29  A    between atoms: _57  and  _58
REMARK   30  A    between atoms: _57  and  _60
REMARK   31  A    between atoms: _60  and  _61
REMARK   32  A    between atoms: _67  and  _69
REMARK   33  A    between atoms: _69  and  _70
REMARK   34  A    between atoms: _69  and  _72
REMARK   35  A    between atoms: _72  and  _73
REMARK   36  A    between atoms: _73  and  _74
REMARK   37  A    between atoms: _74  and  _75
REMARK   38  A    between atoms: _84  and  _86
REMARK   39  A    between atoms: _86  and  _87
REMARK   40  A    between atoms: _89  and  _91
REMARK   41  A    between atoms: _91  and  _92
REMARK   42  A    between atoms: _91  and  _94
REMARK   43  A    between atoms: _94  and  _95
REMARK   44  A    between atoms: _101  and  _103
REMARK   45  A    between atoms: _103  and  _104
REMARK   46  A    between atoms: _103  and  _106
REMARK   47  A    between atoms: _106  and  _107
REMARK   48  A    between atoms: _117  and  _119
REMARK   49  A    between atoms: _119  and  _120
REMARK   50  A    between atoms: _119  and  _122
REMARK   51  A    between atoms: _125  and  _127
REMARK   52  A    between atoms: _127  and  _128
REMARK   53  A    between atoms: _127  and  _130
REMARK   54  A    between atoms: _130  and  _131
REMARK   55  A    between atoms: _133  and  _135
REMARK   56  A    between atoms: _135  and  _136
REMARK   57  A    between atoms: _135  and  _138
REMARK   58  A    between atoms: _138  and  _139
REMARK   59  A    between atoms: _139  and  _140
REMARK   60  A    between atoms: _143  and  _145
REMARK   61  A    between atoms: _145  and  _146
REMARK   62  A    between atoms: _145  and  _148
REMARK   63  A    between atoms: _148  and  _149
REMARK   64  A    between atoms: _149  and  _150
REMARK   65  A    between atoms: _155  and  _157
REMARK   66  A    between atoms: _157  and  _158
REMARK   67  A    between atoms: _157  and  _160
REMARK   68  A    between atoms: _160  and  _161
REMARK   69  A    between atoms: _166  and  _167
REMARK   70  A    between atoms: _169  and  _171
REMARK   71  A    between atoms: _171  and  _172
REMARK   72  A    between atoms: _175  and  _177
REMARK   73  A    between atoms: _177  and  _178
REMARK   74  A    between atoms: _177  and  _180
REMARK   75  A    between atoms: _180  and  _181
REMARK   76  A    between atoms: _184  and  _186
REMARK   77  A    between atoms: _186  and  _187
REMARK   78  A    between atoms: _186  and  _189
REMARK   79  A    between atoms: _189  and  _190
REMARK   80  A    between atoms: _200  and  _202
REMARK   81  A    between atoms: _202  and  _203
REMARK   82  A    between atoms: _202  and  _205
REMARK   83  A    between atoms: _205  and  _206
REMARK   84  A    between atoms: _206  and  _207
REMARK   85  A    between atoms: _210  and  _212
REMARK   86  A    between atoms: _212  and  _213
REMARK   87  A    between atoms: _212  and  _215
REMARK   88  A    between atoms: _215  and  _216
REMARK   89  A    between atoms: _222  and  _224
REMARK   90  A    between atoms: _224  and  _225
REMARK   91  A    between atoms: _224  and  _227
REMARK   92  A    between atoms: _227  and  _228
REMARK   93  A    between atoms: _234  and  _236
REMARK   94  A    between atoms: _236  and  _237
REMARK   95  A    between atoms: _236  and  _239
REMARK   96  A    between atoms: _239  and  _240
REMARK   97  A    between atoms: _243  and  _245
REMARK   98  A    between atoms: _245  and  _246
REMARK   99  A    between atoms: _245  and  _248
REMARK  100  A    between atoms: _248  and  _249
REMARK  101  A    between atoms: _252  and  _253
REMARK  102  A    between atoms: _258  and  _260
REMARK  103  A    between atoms: _260  and  _261
REMARK  104  A    between atoms: _260  and  _263
REMARK  105  A    between atoms: _263  and  _264
REMARK  106  A    between atoms: _267  and  _269
REMARK  107  A    between atoms: _269  and  _270
REMARK  108  A    between atoms: _269  and  _272
REMARK  109  A    between atoms: _272  and  _273
REMARK  110  A    between atoms: _273  and  _274
REMARK  111  A    between atoms: _274  and  _275
REMARK  112  A    between atoms: _275  and  _276
REMARK  113  A    between atoms: _280  and  _282
REMARK  114  A    between atoms: _282  and  _283
REMARK  115  A    between atoms: _282  and  _285
REMARK  116  A    between atoms: _285  and  _286
REMARK  117  A    between atoms: _286  and  _287
REMARK  118  A    between atoms: _289  and  _291
REMARK  119  A    between atoms: _291  and  _292
REMARK  120  A    between atoms: _291  and  _294
REMARK  121  A    between atoms: _294  and  _295
REMARK  122  A    between atoms: _301  and  _303
REMARK  123  A    between atoms: _303  and  _304
REMARK  124  A    between atoms: _303  and  _306
REMARK  125  A    between atoms: _308  and  _310
REMARK  126  A    between atoms: _310  and  _311
REMARK  127  A    between atoms: _310  and  _313
REMARK  128  A    between atoms: _313  and  _314
REMARK  129  A    between atoms: _314  and  _315
REMARK  130  A    between atoms: _315  and  _316
REMARK  131  A    between atoms: _316  and  _317
REMARK  132  A    between atoms: _321  and  _323
REMARK  133  A    between atoms: _323  and  _324
REMARK  134  A    between atoms: _323  and  _326
REMARK  135  A    between atoms: _326  and  _327
REMARK  136  A    between atoms: _330  and  _332
REMARK  137  A    between atoms: _332  and  _333
REMARK  138  A    between atoms: _332  and  _335
REMARK  139  A    between atoms: _335  and  _336
REMARK  140  A    between atoms: _336  and  _337
REMARK  141  A    between atoms: _337  and  _338
REMARK  142  A    between atoms: _347  and  _349
REMARK  143  A    between atoms: _349  and  _350
REMARK  144  A    between atoms: _349  and  _352
REMARK  145  A    between atoms: _352  and  _353
REMARK  146  A    between atoms: _356  and  _358
REMARK  147  A    between atoms: _358  and  _359
REMARK  148  A    between atoms: _358  and  _361
REMARK  149  A    between atoms: _361  and  _362
REMARK  150  A    between atoms: _362  and  _363
REMARK  151  A    between atoms: _363  and  _364
REMARK  152  A    between atoms: _364  and  _365
REMARK  153  A    between atoms: _369  and  _371
REMARK  154  A    between atoms: _371  and  _372
REMARK  155  A    between atoms: _371  and  _374
REMARK  156  A    between atoms: _374  and  _375
REMARK  157  A    between atoms: _378  and  _380
REMARK  158  A    between atoms: _380  and  _381
REMARK  159  A    between atoms: _380  and  _383
REMARK  160  A    between atoms: _383  and  _384
REMARK  161  A    between atoms: _384  and  _385
REMARK  162  A    between atoms: _385  and  MG_421
REMARK  163  A    between atoms: _387  and  _389
REMARK  164  A    between atoms: _389  and  _390
REMARK  165  A    between atoms: _389  and  _392
REMARK  166  A    between atoms: _392  and  _393
REMARK  167  A    between atoms: _393  and  _394
REMARK  168  A    between atoms: _394  and  _395
REMARK  169  A    between atoms: _404  and  _406
REMARK  170  A    between atoms: _406  and  _407
REMARK  171  A    between atoms: _410  and  _412
REMARK  172  A    between atoms: _412  and  _413
REMARK  173  A    between atoms: _412  and  _415
REMARK  174  A    between atoms: _415  and  _416
REMARK                            x       y       z     vdW  Elec       q    Type
REMARK                         _______ _______ _______ _____ _____    ______ ____
ROOT
ATOM      1  O   HOH     1      22.940  36.727  24.204  0.00  0.00    +0.000 OA
ENDROOT
TORSDOF 0
REMARK  Name = ../refined-set-2016/1q91/1q91_pocket.pdb
REMARK  174 active torsions:
REMARK  status: ('A' for Active; 'I' for Inactive)
REMARK    1  A    between atoms: _1  and  _3
REMARK    2  A    between atoms: _3  and  _4
REMARK    3  A    between atoms: _3  and  _6
REMARK    4  A    between atoms: _6  and  _7
REMARK    5  A    between atoms: _10  and  _12
REMARK    6  A    between atoms: _12  and  _13
REMARK    7  A    between atoms: _12  and  _15
REMARK    8  A    between atoms: _15  and  _16
REMARK    9  A    between atoms: _16  and  _17
REMARK   10  A    between atoms: _19  and  _21
REMARK   11  A    between atoms: _21  and  _22
REMARK   12  A    between atoms: _21  and  _24
REMARK   13  A    between atoms: _22  and  _23
REMARK   14  A    between atoms: _22  and  _28
REMARK   15  A    between atoms: _23  and  MG_421
REMARK   16  A    between atoms: _24  and  _25
REMARK   17  A    between atoms: _28  and  _30
REMARK   18  A    between atoms: _30  and  _31
REMARK   19  A    between atoms: _33  and  _35
REMARK   20  A    between atoms: _35  and  _36
REMARK   21  A    between atoms: _35  and  _38
REMARK   22  A    between atoms: _38  and  _39
REMARK   23  A    between atoms: _45  and  _47
REMARK   24  A    between atoms: _47  and  _48
REMARK   25  A    between atoms: _47  and  _50
REMARK   26  A    between atoms: _50  and  _51
REMARK   27  A    between atoms: _51  and  _52
REMARK   28  A    between atoms: _55  and  _57
REMARK   29  A    between atoms: _57  and  _58
REMARK   30  A    between atoms: _57  and  _60
REMARK   31  A    between atoms: _60  and  _61
REMARK   32  A    between atoms: _67  and  _69
REMARK   33  A    between atoms: _69  and  _70
REMARK   34  A    between atoms: _69  and  _72
REMARK   35  A    between atoms: _72  and  _73
REMARK   36  A    between atoms: _73  and  _74
REMARK   37  A    between atoms: _74  and  _75
REMARK   38  A    between atoms: _84  and  _86
REMARK   39  A    between atoms: _86  and  _87
REMARK   40  A    between atoms: _89  and  _91
REMARK   41  A    between atoms: _91  and  _92
REMARK   42  A    between atoms: _91  and  _94
REMARK   43  A    between atoms: _94  and  _95
REMARK   44  A    between atoms: _101  and  _103
REMARK   45  A    between atoms: _103  and  _104
REMARK   46  A    between atoms: _103  and  _106
REMARK   47  A    between atoms: _106  and  _107
REMARK   48  A    between atoms: _117  and  _119
REMARK   49  A    between atoms: _119  and  _120
REMARK   50  A    between atoms: _119  and  _122
REMARK   51  A    between atoms: _125  and  _127
REMARK   52  A    between atoms: _127  and  _128
REMARK   53  A    between atoms: _127  and  _130
REMARK   54  A    between atoms: _130  and  _131
REMARK   55  A    between atoms: _133  and  _135
REMARK   56  A    between atoms: _135  and  _136
REMARK   57  A    between atoms: _135  and  _138
REMARK   58  A    between atoms: _138  and  _139
REMARK   59  A    between atoms: _139  and  _140
REMARK   60  A    between atoms: _143  and  _145
REMARK   61  A    between atoms: _145  and  _146
REMARK   62  A    between atoms: _145  and  _148
REMARK   63  A    between atoms: _148  and  _149
REMARK   64  A    between atoms: _149  and  _150
REMARK   65  A    between atoms: _155  and  _157
REMARK   66  A    between atoms: _157  and  _158
REMARK   67  A    between atoms: _157  and  _160
REMARK   68  A    between atoms: _160  and  _161
REMARK   69  A    between atoms: _166  and  _167
REMARK   70  A    between atoms: _169  and  _171
REMARK   71  A    between atoms: _171  and  _172
REMARK   72  A    between atoms: _175  and  _177
REMARK   73  A    between atoms: _177  and  _178
REMARK   74  A    between atoms: _177  and  _180
REMARK   75  A    between atoms: _180  and  _181
REMARK   76  A    between atoms: _184  and  _186
REMARK   77  A    between atoms: _186  and  _187
REMARK   78  A    between atoms: _186  and  _189
REMARK   79  A    between atoms: _189  and  _190
REMARK   80  A    between atoms: _200  and  _202
REMARK   81  A    between atoms: _202  and  _203
REMARK   82  A    between atoms: _202  and  _205
REMARK   83  A    between atoms: _205  and  _206
REMARK   84  A    between atoms: _206  and  _207
REMARK   85  A    between atoms: _210  and  _212
REMARK   86  A    between atoms: _212  and  _213
REMARK   87  A    between atoms: _212  and  _215
REMARK   88  A    between atoms: _215  and  _216
REMARK   89  A    between atoms: _222  and  _224
REMARK   90  A    between atoms: _224  and  _225
REMARK   91  A    between atoms: _224  and  _227
REMARK   92  A    between atoms: _227  and  _228
REMARK   93  A    between atoms: _234  and  _236
REMARK   94  A    between atoms: _236  and  _237
REMARK   95  A    between atoms: _236  and  _239
REMARK   96  A    between atoms: _239  and  _240
REMARK   97  A    between atoms: _243  and  _245
REMARK   98  A    between atoms: _245  and  _246
REMARK   99  A    between atoms: _245  and  _248
REMARK  100  A    between atoms: _248  and  _249
REMARK  101  A    between atoms: _252  and  _253
REMARK  102  A    between atoms: _258  and  _260
REMARK  103  A    between atoms: _260  and  _261
REMARK  104  A    between atoms: _260  and  _263
REMARK  105  A    between atoms: _263  and  _264
REMARK  106  A    between atoms: _267  and  _269
REMARK  107  A    between atoms: _269  and  _270
REMARK  108  A    between atoms: _269  and  _272
REMARK  109  A    between atoms: _272  and  _273
REMARK  110  A    between atoms: _273  and  _274
REMARK  111  A    between atoms: _274  and  _275
REMARK  112  A    between atoms: _275  and  _276
REMARK  113  A    between atoms: _280  and  _282
REMARK  114  A    between atoms: _282  and  _283
REMARK  115  A    between atoms: _282  and  _285
REMARK  116  A    between atoms: _285  and  _286
REMARK  117  A    between atoms: _286  and  _287
REMARK  118  A    between atoms: _289  and  _291
REMARK  119  A    between atoms: _291  and  _292
REMARK  120  A    between atoms: _291  and  _294
REMARK  121  A    between atoms: _294  and  _295
REMARK  122  A    between atoms: _301  and  _303
REMARK  123  A    between atoms: _303  and  _304
REMARK  124  A    between atoms: _303  and  _306
REMARK  125  A    between atoms: _308  and  _310
REMARK  126  A    between atoms: _310  and  _311
REMARK  127  A    between atoms: _310  and  _313
REMARK  128  A    between atoms: _313  and  _314
REMARK  129  A    between atoms: _314  and  _315
REMARK  130  A    between atoms: _315  and  _316
REMARK  131  A    between atoms: _316  and  _317
REMARK  132  A    between atoms: _321  and  _323
REMARK  133  A    between atoms: _323  and  _324
REMARK  134  A    between atoms: _323  and  _326
REMARK  135  A    between atoms: _326  and  _327
REMARK  136  A    between atoms: _330  and  _332
REMARK  137  A    between atoms: _332  and  _333
REMARK  138  A    between atoms: _332  and  _335
REMARK  139  A    between atoms: _335  and  _336
REMARK  140  A    between atoms: _336  and  _337
REMARK  141  A    between atoms: _337  and  _338
REMARK  142  A    between atoms: _347  and  _349
REMARK  143  A    between atoms: _349  and  _350
REMARK  144  A    between atoms: _349  and  _352
REMARK  145  A    between atoms: _352  and  _353
REMARK  146  A    between atoms: _356  and  _358
REMARK  147  A    between atoms: _358  and  _359
REMARK  148  A    between atoms: _358  and  _361
REMARK  149  A    between atoms: _361  and  _362
REMARK  150  A    between atoms: _362  and  _363
REMARK  151  A    between atoms: _363  and  _364
REMARK  152  A    between atoms: _364  and  _365
REMARK  153  A    between atoms: _369  and  _371
REMARK  154  A    between atoms: _371  and  _372
REMARK  155  A    between atoms: _371  and  _374
REMARK  156  A    between atoms: _374  and  _375
REMARK  157  A    between atoms: _378  and  _380
REMARK  158  A    between atoms: _380  and  _381
REMARK  159  A    between atoms: _380  and  _383
REMARK  160  A    between atoms: _383  and  _384
REMARK  161  A    between atoms: _384  and  _385
REMARK  162  A    between atoms: _385  and  MG_421
REMARK  163  A    between atoms: _387  and  _389
REMARK  164  A    between atoms: _389  and  _390
REMARK  165  A    between atoms: _389  and  _392
REMARK  166  A    between atoms: _392  and  _393
REMARK  167  A    between atoms: _393  and  _394
REMARK  168  A    between atoms: _394  and  _395
REMARK  169  A    between atoms: _404  and  _406
REMARK  170  A    between atoms: _406  and  _407
REMARK  171  A    between atoms: _410  and  _412
REMARK  172  A    between atoms: _412  and  _413
REMARK  173  A    between atoms: _412  and  _415
REMARK  174  A    between atoms: _415  and  _416
REMARK                            x       y       z     vdW  Elec       q    Type
REMARK                         _______ _______ _______ _____ _____    ______ ____
ROOT
ATOM      1  O   HOH     1      17.940  33.062  19.628  0.00  0.00    +0.000 OA
ENDROOT
TORSDOF 0
REMARK  Name = ../refined-set-2016/1q91/1q91_pocket.pdb
REMARK  174 active torsions:
REMARK  status: ('A' for Active; 'I' for Inactive)
REMARK    1  A    between atoms: _1  and  _3
REMARK    2  A    between atoms: _3  and  _4
REMARK    3  A    between atoms: _3  and  _6
REMARK    4  A    between atoms: _6  and  _7
REMARK    5  A    between atoms: _10  and  _12
REMARK    6  A    between atoms: _12  and  _13
REMARK    7  A    between atoms: _12  and  _15
REMARK    8  A    between atoms: _15  and  _16
REMARK    9  A    between atoms: _16  and  _17
REMARK   10  A    between atoms: _19  and  _21
REMARK   11  A    between atoms: _21  and  _22
REMARK   12  A    between atoms: _21  and  _24
REMARK   13  A    between atoms: _22  and  _23
REMARK   14  A    between atoms: _22  and  _28
REMARK   15  A    between atoms: _23  and  MG_421
REMARK   16  A    between atoms: _24  and  _25
REMARK   17  A    between atoms: _28  and  _30
REMARK   18  A    between atoms: _30  and  _31
REMARK   19  A    between atoms: _33  and  _35
REMARK   20  A    between atoms: _35  and  _36
REMARK   21  A    between atoms: _35  and  _38
REMARK   22  A    between atoms: _38  and  _39
REMARK   23  A    between atoms: _45  and  _47
REMARK   24  A    between atoms: _47  and  _48
REMARK   25  A    between atoms: _47  and  _50
REMARK   26  A    between atoms: _50  and  _51
REMARK   27  A    between atoms: _51  and  _52
REMARK   28  A    between atoms: _55  and  _57
REMARK   29  A    between atoms: _57  and  _58
REMARK   30  A    between atoms: _57  and  _60
REMARK   31  A    between atoms: _60  and  _61
REMARK   32  A    between atoms: _67  and  _69
REMARK   33  A    between atoms: _69  and  _70
REMARK   34  A    between atoms: _69  and  _72
REMARK   35  A    between atoms: _72  and  _73
REMARK   36  A    between atoms: _73  and  _74
REMARK   37  A    between atoms: _74  and  _75
REMARK   38  A    between atoms: _84  and  _86
REMARK   39  A    between atoms: _86  and  _87
REMARK   40  A    between atoms: _89  and  _91
REMARK   41  A    between atoms: _91  and  _92
REMARK   42  A    between atoms: _91  and  _94
REMARK   43  A    between atoms: _94  and  _95
REMARK   44  A    between atoms: _101  and  _103
REMARK   45  A    between atoms: _103  and  _104
REMARK   46  A    between atoms: _103  and  _106
REMARK   47  A    between atoms: _106  and  _107
REMARK   48  A    between atoms: _117  and  _119
REMARK   49  A    between atoms: _119  and  _120
REMARK   50  A    between atoms: _119  and  _122
REMARK   51  A    between atoms: _125  and  _127
REMARK   52  A    between atoms: _127  and  _128
REMARK   53  A    between atoms: _127  and  _130
REMARK   54  A    between atoms: _130  and  _131
REMARK   55  A    between atoms: _133  and  _135
REMARK   56  A    between atoms: _135  and  _136
REMARK   57  A    between atoms: _135  and  _138
REMARK   58  A    between atoms: _138  and  _139
REMARK   59  A    between atoms: _139  and  _140
REMARK   60  A    between atoms: _143  and  _145
REMARK   61  A    between atoms: _145  and  _146
REMARK   62  A    between atoms: _145  and  _148
REMARK   63  A    between atoms: _148  and  _149
REMARK   64  A    between atoms: _149  and  _150
REMARK   65  A    between atoms: _155  and  _157
REMARK   66  A    between atoms: _157  and  _158
REMARK   67  A    between atoms: _157  and  _160
REMARK   68  A    between atoms: _160  and  _161
REMARK   69  A    between atoms: _166  and  _167
REMARK   70  A    between atoms: _169  and  _171
REMARK   71  A    between atoms: _171  and  _172
REMARK   72  A    between atoms: _175  and  _177
REMARK   73  A    between atoms: _177  and  _178
REMARK   74  A    between atoms: _177  and  _180
REMARK   75  A    between atoms: _180  and  _181
REMARK   76  A    between atoms: _184  and  _186
REMARK   77  A    between atoms: _186  and  _187
REMARK   78  A    between atoms: _186  and  _189
REMARK   79  A    between atoms: _189  and  _190
REMARK   80  A    between atoms: _200  and  _202
REMARK   81  A    between atoms: _202  and  _203
REMARK   82  A    between atoms: _202  and  _205
REMARK   83  A    between atoms: _205  and  _206
REMARK   84  A    between atoms: _206  and  _207
REMARK   85  A    between atoms: _210  and  _212
REMARK   86  A    between atoms: _212  and  _213
REMARK   87  A    between atoms: _212  and  _215
REMARK   88  A    between atoms: _215  and  _216
REMARK   89  A    between atoms: _222  and  _224
REMARK   90  A    between atoms: _224  and  _225
REMARK   91  A    between atoms: _224  and  _227
REMARK   92  A    between atoms: _227  and  _228
REMARK   93  A    between atoms: _234  and  _236
REMARK   94  A    between atoms: _236  and  _237
REMARK   95  A    between atoms: _236  and  _239
REMARK   96  A    between atoms: _239  and  _240
REMARK   97  A    between atoms: _243  and  _245
REMARK   98  A    between atoms: _245  and  _246
REMARK   99  A    between atoms: _245  and  _248
REMARK  100  A    between atoms: _248  and  _249
REMARK  101  A    between atoms: _252  and  _253
REMARK  102  A    between atoms: _258  and  _260
REMARK  103  A    between atoms: _260  and  _261
REMARK  104  A    between atoms: _260  and  _263
REMARK  105  A    between atoms: _263  and  _264
REMARK  106  A    between atoms: _267  and  _269
REMARK  107  A    between atoms: _269  and  _270
REMARK  108  A    between atoms: _269  and  _272
REMARK  109  A    between atoms: _272  and  _273
REMARK  110  A    between atoms: _273  and  _274
REMARK  111  A    between atoms: _274  and  _275
REMARK  112  A    between atoms: _275  and  _276
REMARK  113  A    between atoms: _280  and  _282
REMARK  114  A    between atoms: _282  and  _283
REMARK  115  A    between atoms: _282  and  _285
REMARK  116  A    between atoms: _285  and  _286
REMARK  117  A    between atoms: _286  and  _287
REMARK  118  A    between atoms: _289  and  _291
REMARK  119  A    between atoms: _291  and  _292
REMARK  120  A    between atoms: _291  and  _294
REMARK  121  A    between atoms: _294  and  _295
REMARK  122  A    between atoms: _301  and  _303
REMARK  123  A    between atoms: _303  and  _304
REMARK  124  A    between atoms: _303  and  _306
REMARK  125  A    between atoms: _308  and  _310
REMARK  126  A    between atoms: _310  and  _311
REMARK  127  A    between atoms: _310  and  _313
REMARK  128  A    between atoms: _313  and  _314
REMARK  129  A    between atoms: _314  and  _315
REMARK  130  A    between atoms: _315  and  _316
REMARK  131  A    between atoms: _316  and  _317
REMARK  132  A    between atoms: _321  and  _323
REMARK  133  A    between atoms: _323  and  _324
REMARK  134  A    between atoms: _323  and  _326
REMARK  135  A    between atoms: _326  and  _327
REMARK  136  A    between atoms: _330  and  _332
REMARK  137  A    between atoms: _332  and  _333
REMARK  138  A    between atoms: _332  and  _335
REMARK  139  A    between atoms: _335  and  _336
REMARK  140  A    between atoms: _336  and  _337
REMARK  141  A    between atoms: _337  and  _338
REMARK  142  A    between atoms: _347  and  _349
REMARK  143  A    between atoms: _349  and  _350
REMARK  144  A    between atoms: _349  and  _352
REMARK  145  A    between atoms: _352  and  _353
REMARK  146  A    between atoms: _356  and  _358
REMARK  147  A    between atoms: _358  and  _359
REMARK  148  A    between atoms: _358  and  _361
REMARK  149  A    between atoms: _361  and  _362
REMARK  150  A    between atoms: _362  and  _363
REMARK  151  A    between atoms: _363  and  _364
REMARK  152  A    between atoms: _364  and  _365
REMARK  153  A    between atoms: _369  and  _371
REMARK  154  A    between atoms: _371  and  _372
REMARK  155  A    between atoms: _371  and  _374
REMARK  156  A    between atoms: _374  and  _375
REMARK  157  A    between atoms: _378  and  _380
REMARK  158  A    between atoms: _380  and  _381
REMARK  159  A    between atoms: _380  and  _383
REMARK  160  A    between atoms: _383  and  _384
REMARK  161  A    between atoms: _384  and  _385
REMARK  162  A    between atoms: _385  and  MG_421
REMARK  163  A    between atoms: _387  and  _389
REMARK  164  A    between atoms: _389  and  _390
REMARK  165  A    between atoms: _389  and  _392
REMARK  166  A    between atoms: _392  and  _393
REMARK  167  A    between atoms: _393  and  _394
REMARK  168  A    between atoms: _394  and  _395
REMARK  169  A    between atoms: _404  and  _406
REMARK  170  A    between atoms: _406  and  _407
REMARK  171  A    between atoms: _410  and  _412
REMARK  172  A    between atoms: _412  and  _413
REMARK  173  A    between atoms: _412  and  _415
REMARK  174  A    between atoms: _415  and  _416
REMARK                            x       y       z     vdW  Elec       q    Type
REMARK                         _______ _______ _______ _____ _____    ______ ____
ROOT
ATOM      1  O   HOH     1      11.581  37.324  20.391  0.00  0.00    +0.000 OA
ENDROOT
TORSDOF 0
REMARK  Name = ../refined-set-2016/1q91/1q91_pocket.pdb
REMARK  174 active torsions:
REMARK  status: ('A' for Active; 'I' for Inactive)
REMARK    1  A    between atoms: _1  and  _3
REMARK    2  A    between atoms: _3  and  _4
REMARK    3  A    between atoms: _3  and  _6
REMARK    4  A    between atoms: _6  and  _7
REMARK    5  A    between atoms: _10  and  _12
REMARK    6  A    between atoms: _12  and  _13
REMARK    7  A    between atoms: _12  and  _15
REMARK    8  A    between atoms: _15  and  _16
REMARK    9  A    between atoms: _16  and  _17
REMARK   10  A    between atoms: _19  and  _21
REMARK   11  A    between atoms: _21  and  _22
REMARK   12  A    between atoms: _21  and  _24
REMARK   13  A    between atoms: _22  and  _23
REMARK   14  A    between atoms: _22  and  _28
REMARK   15  A    between atoms: _23  and  MG_421
REMARK   16  A    between atoms: _24  and  _25
REMARK   17  A    between atoms: _28  and  _30
REMARK   18  A    between atoms: _30  and  _31
REMARK   19  A    between atoms: _33  and  _35
REMARK   20  A    between atoms: _35  and  _36
REMARK   21  A    between atoms: _35  and  _38
REMARK   22  A    between atoms: _38  and  _39
REMARK   23  A    between atoms: _45  and  _47
REMARK   24  A    between atoms: _47  and  _48
REMARK   25  A    between atoms: _47  and  _50
REMARK   26  A    between atoms: _50  and  _51
REMARK   27  A    between atoms: _51  and  _52
REMARK   28  A    between atoms: _55  and  _57
REMARK   29  A    between atoms: _57  and  _58
REMARK   30  A    between atoms: _57  and  _60
REMARK   31  A    between atoms: _60  and  _61
REMARK   32  A    between atoms: _67  and  _69
REMARK   33  A    between atoms: _69  and  _70
REMARK   34  A    between atoms: _69  and  _72
REMARK   35  A    between atoms: _72  and  _73
REMARK   36  A    between atoms: _73  and  _74
REMARK   37  A    between atoms: _74  and  _75
REMARK   38  A    between atoms: _84  and  _86
REMARK   39  A    between atoms: _86  and  _87
REMARK   40  A    between atoms: _89  and  _91
REMARK   41  A    between atoms: _91  and  _92
REMARK   42  A    between atoms: _91  and  _94
REMARK   43  A    between atoms: _94  and  _95
REMARK   44  A    between atoms: _101  and  _103
REMARK   45  A    between atoms: _103  and  _104
REMARK   46  A    between atoms: _103  and  _106
REMARK   47  A    between atoms: _106  and  _107
REMARK   48  A    between atoms: _117  and  _119
REMARK   49  A    between atoms: _119  and  _120
REMARK   50  A    between atoms: _119  and  _122
REMARK   51  A    between atoms: _125  and  _127
REMARK   52  A    between atoms: _127  and  _128
REMARK   53  A    between atoms: _127  and  _130
REMARK   54  A    between atoms: _130  and  _131
REMARK   55  A    between atoms: _133  and  _135
REMARK   56  A    between atoms: _135  and  _136
REMARK   57  A    between atoms: _135  and  _138
REMARK   58  A    between atoms: _138  and  _139
REMARK   59  A    between atoms: _139  and  _140
REMARK   60  A    between atoms: _143  and  _145
REMARK   61  A    between atoms: _145  and  _146
REMARK   62  A    between atoms: _145  and  _148
REMARK   63  A    between atoms: _148  and  _149
REMARK   64  A    between atoms: _149  and  _150
REMARK   65  A    between atoms: _155  and  _157
REMARK   66  A    between atoms: _157  and  _158
REMARK   67  A    between atoms: _157  and  _160
REMARK   68  A    between atoms: _160  and  _161
REMARK   69  A    between atoms: _166  and  _167
REMARK   70  A    between atoms: _169  and  _171
REMARK   71  A    between atoms: _171  and  _172
REMARK   72  A    between atoms: _175  and  _177
REMARK   73  A    between atoms: _177  and  _178
REMARK   74  A    between atoms: _177  and  _180
REMARK   75  A    between atoms: _180  and  _181
REMARK   76  A    between atoms: _184  and  _186
REMARK   77  A    between atoms: _186  and  _187
REMARK   78  A    between atoms: _186  and  _189
REMARK   79  A    between atoms: _189  and  _190
REMARK   80  A    between atoms: _200  and  _202
REMARK   81  A    between atoms: _202  and  _203
REMARK   82  A    between atoms: _202  and  _205
REMARK   83  A    between atoms: _205  and  _206
REMARK   84  A    between atoms: _206  and  _207
REMARK   85  A    between atoms: _210  and  _212
REMARK   86  A    between atoms: _212  and  _213
REMARK   87  A    between atoms: _212  and  _215
REMARK   88  A    between atoms: _215  and  _216
REMARK   89  A    between atoms: _222  and  _224
REMARK   90  A    between atoms: _224  and  _225
REMARK   91  A    between atoms: _224  and  _227
REMARK   92  A    between atoms: _227  and  _228
REMARK   93  A    between atoms: _234  and  _236
REMARK   94  A    between atoms: _236  and  _237
REMARK   95  A    between atoms: _236  and  _239
REMARK   96  A    between atoms: _239  and  _240
REMARK   97  A    between atoms: _243  and  _245
REMARK   98  A    between atoms: _245  and  _246
REMARK   99  A    between atoms: _245  and  _248
REMARK  100  A    between atoms: _248  and  _249
REMARK  101  A    between atoms: _252  and  _253
REMARK  102  A    between atoms: _258  and  _260
REMARK  103  A    between atoms: _260  and  _261
REMARK  104  A    between atoms: _260  and  _263
REMARK  105  A    between atoms: _263  and  _264
REMARK  106  A    between atoms: _267  and  _269
REMARK  107  A    between atoms: _269  and  _270
REMARK  108  A    between atoms: _269  and  _272
REMARK  109  A    between atoms: _272  and  _273
REMARK  110  A    between atoms: _273  and  _274
REMARK  111  A    between atoms: _274  and  _275
REMARK  112  A    between atoms: _275  and  _276
REMARK  113  A    between atoms: _280  and  _282
REMARK  114  A    between atoms: _282  and  _283
REMARK  115  A    between atoms: _282  and  _285
REMARK  116  A    between atoms: _285  and  _286
REMARK  117  A    between atoms: _286  and  _287
REMARK  118  A    between atoms: _289  and  _291
REMARK  119  A    between atoms: _291  and  _292
REMARK  120  A    between atoms: _291  and  _294
REMARK  121  A    between atoms: _294  and  _295
REMARK  122  A    between atoms: _301  and  _303
REMARK  123  A    between atoms: _303  and  _304
REMARK  124  A    between atoms: _303  and  _306
REMARK  125  A    between atoms: _308  and  _310
REMARK  126  A    between atoms: _310  and  _311
REMARK  127  A    between atoms: _310  and  _313
REMARK  128  A    between atoms: _313  and  _314
REMARK  129  A    between atoms: _314  and  _315
REMARK  130  A    between atoms: _315  and  _316
REMARK  131  A    between atoms: _316  and  _317
REMARK  132  A    between atoms: _321  and  _323
REMARK  133  A    between atoms: _323  and  _324
REMARK  134  A    between atoms: _323  and  _326
REMARK  135  A    between atoms: _326  and  _327
REMARK  136  A    between atoms: _330  and  _332
REMARK  137  A    between atoms: _332  and  _333
REMARK  138  A    between atoms: _332  and  _335
REMARK  139  A    between atoms: _335  and  _336
REMARK  140  A    between atoms: _336  and  _337
REMARK  141  A    between atoms: _337  and  _338
REMARK  142  A    between atoms: _347  and  _349
REMARK  143  A    between atoms: _349  and  _350
REMARK  144  A    between atoms: _349  and  _352
REMARK  145  A    between atoms: _352  and  _353
REMARK  146  A    between atoms: _356  and  _358
REMARK  147  A    between atoms: _358  and  _359
REMARK  148  A    between atoms: _358  and  _361
REMARK  149  A    between atoms: _361  and  _362
REMARK  150  A    between atoms: _362  and  _363
REMARK  151  A    between atoms: _363  and  _364
REMARK  152  A    between atoms: _364  and  _365
REMARK  153  A    between atoms: _369  and  _371
REMARK  154  A    between atoms: _371  and  _372
REMARK  155  A    between atoms: _371  and  _374
REMARK  156  A    between atoms: _374  and  _375
REMARK  157  A    between atoms: _378  and  _380
REMARK  158  A    between atoms: _380  and  _381
REMARK  159  A    between atoms: _380  and  _383
REMARK  160  A    between atoms: _383  and  _384
REMARK  161  A    between atoms: _384  and  _385
REMARK  162  A    between atoms: _385  and  MG_421
REMARK  163  A    between atoms: _387  and  _389
REMARK  164  A    between atoms: _389  and  _390
REMARK  165  A    between atoms: _389  and  _392
REMARK  166  A    between atoms: _392  and  _393
REMARK  167  A    between atoms: _393  and  _394
REMARK  168  A    between atoms: _394  and  _395
REMARK  169  A    between atoms: _404  and  _406
REMARK  170  A    between atoms: _406  and  _407
REMARK  171  A    between atoms: _410  and  _412
REMARK  172  A    between atoms: _412  and  _413
REMARK  173  A    between atoms: _412  and  _415
REMARK  174  A    between atoms: _415  and  _416
REMARK                            x       y       z     vdW  Elec       q    Type
REMARK                         _______ _______ _______ _____ _____    ______ ____
ROOT
ATOM      1  O   HOH     1      14.186  39.550  25.757  0.00  0.00    +0.000 OA
ENDROOT
TORSDOF 0
REMARK  Name = ../refined-set-2016/1q91/1q91_pocket.pdb
REMARK  174 active torsions:
REMARK  status: ('A' for Active; 'I' for Inactive)
REMARK    1  A    between atoms: _1  and  _3
REMARK    2  A    between atoms: _3  and  _4
REMARK    3  A    between atoms: _3  and  _6
REMARK    4  A    between atoms: _6  and  _7
REMARK    5  A    between atoms: _10  and  _12
REMARK    6  A    between atoms: _12  and  _13
REMARK    7  A    between atoms: _12  and  _15
REMARK    8  A    between atoms: _15  and  _16
REMARK    9  A    between atoms: _16  and  _17
REMARK   10  A    between atoms: _19  and  _21
REMARK   11  A    between atoms: _21  and  _22
REMARK   12  A    between atoms: _21  and  _24
REMARK   13  A    between atoms: _22  and  _23
REMARK   14  A    between atoms: _22  and  _28
REMARK   15  A    between atoms: _23  and  MG_421
REMARK   16  A    between atoms: _24  and  _25
REMARK   17  A    between atoms: _28  and  _30
REMARK   18  A    between atoms: _30  and  _31
REMARK   19  A    between atoms: _33  and  _35
REMARK   20  A    between atoms: _35  and  _36
REMARK   21  A    between atoms: _35  and  _38
REMARK   22  A    between atoms: _38  and  _39
REMARK   23  A    between atoms: _45  and  _47
REMARK   24  A    between atoms: _47  and  _48
REMARK   25  A    between atoms: _47  and  _50
REMARK   26  A    between atoms: _50  and  _51
REMARK   27  A    between atoms: _51  and  _52
REMARK   28  A    between atoms: _55  and  _57
REMARK   29  A    between atoms: _57  and  _58
REMARK   30  A    between atoms: _57  and  _60
REMARK   31  A    between atoms: _60  and  _61
REMARK   32  A    between atoms: _67  and  _69
REMARK   33  A    between atoms: _69  and  _70
REMARK   34  A    between atoms: _69  and  _72
REMARK   35  A    between atoms: _72  and  _73
REMARK   36  A    between atoms: _73  and  _74
REMARK   37  A    between atoms: _74  and  _75
REMARK   38  A    between atoms: _84  and  _86
REMARK   39  A    between atoms: _86  and  _87
REMARK   40  A    between atoms: _89  and  _91
REMARK   41  A    between atoms: _91  and  _92
REMARK   42  A    between atoms: _91  and  _94
REMARK   43  A    between atoms: _94  and  _95
REMARK   44  A    between atoms: _101  and  _103
REMARK   45  A    between atoms: _103  and  _104
REMARK   46  A    between atoms: _103  and  _106
REMARK   47  A    between atoms: _106  and  _107
REMARK   48  A    between atoms: _117  and  _119
REMARK   49  A    between atoms: _119  and  _120
REMARK   50  A    between atoms: _119  and  _122
REMARK   51  A    between atoms: _125  and  _127
REMARK   52  A    between atoms: _127  and  _128
REMARK   53  A    between atoms: _127  and  _130
REMARK   54  A    between atoms: _130  and  _131
REMARK   55  A    between atoms: _133  and  _135
REMARK   56  A    between atoms: _135  and  _136
REMARK   57  A    between atoms: _135  and  _138
REMARK   58  A    between atoms: _138  and  _139
REMARK   59  A    between atoms: _139  and  _140
REMARK   60  A    between atoms: _143  and  _145
REMARK   61  A    between atoms: _145  and  _146
REMARK   62  A    between atoms: _145  and  _148
REMARK   63  A    between atoms: _148  and  _149
REMARK   64  A    between atoms: _149  and  _150
REMARK   65  A    between atoms: _155  and  _157
REMARK   66  A    between atoms: _157  and  _158
REMARK   67  A    between atoms: _157  and  _160
REMARK   68  A    between atoms: _160  and  _161
REMARK   69  A    between atoms: _166  and  _167
REMARK   70  A    between atoms: _169  and  _171
REMARK   71  A    between atoms: _171  and  _172
REMARK   72  A    between atoms: _175  and  _177
REMARK   73  A    between atoms: _177  and  _178
REMARK   74  A    between atoms: _177  and  _180
REMARK   75  A    between atoms: _180  and  _181
REMARK   76  A    between atoms: _184  and  _186
REMARK   77  A    between atoms: _186  and  _187
REMARK   78  A    between atoms: _186  and  _189
REMARK   79  A    between atoms: _189  and  _190
REMARK   80  A    between atoms: _200  and  _202
REMARK   81  A    between atoms: _202  and  _203
REMARK   82  A    between atoms: _202  and  _205
REMARK   83  A    between atoms: _205  and  _206
REMARK   84  A    between atoms: _206  and  _207
REMARK   85  A    between atoms: _210  and  _212
REMARK   86  A    between atoms: _212  and  _213
REMARK   87  A    between atoms: _212  and  _215
REMARK   88  A    between atoms: _215  and  _216
REMARK   89  A    between atoms: _222  and  _224
REMARK   90  A    between atoms: _224  and  _225
REMARK   91  A    between atoms: _224  and  _227
REMARK   92  A    between atoms: _227  and  _228
REMARK   93  A    between atoms: _234  and  _236
REMARK   94  A    between atoms: _236  and  _237
REMARK   95  A    between atoms: _236  and  _239
REMARK   96  A    between atoms: _239  and  _240
REMARK   97  A    between atoms: _243  and  _245
REMARK   98  A    between atoms: _245  and  _246
REMARK   99  A    between atoms: _245  and  _248
REMARK  100  A    between atoms: _248  and  _249
REMARK  101  A    between atoms: _252  and  _253
REMARK  102  A    between atoms: _258  and  _260
REMARK  103  A    between atoms: _260  and  _261
REMARK  104  A    between atoms: _260  and  _263
REMARK  105  A    between atoms: _263  and  _264
REMARK  106  A    between atoms: _267  and  _269
REMARK  107  A    between atoms: _269  and  _270
REMARK  108  A    between atoms: _269  and  _272
REMARK  109  A    between atoms: _272  and  _273
REMARK  110  A    between atoms: _273  and  _274
REMARK  111  A    between atoms: _274  and  _275
REMARK  112  A    between atoms: _275  and  _276
REMARK  113  A    between atoms: _280  and  _282
REMARK  114  A    between atoms: _282  and  _283
REMARK  115  A    between atoms: _282  and  _285
REMARK  116  A    between atoms: _285  and  _286
REMARK  117  A    between atoms: _286  and  _287
REMARK  118  A    between atoms: _289  and  _291
REMARK  119  A    between atoms: _291  and  _292
REMARK  120  A    between atoms: _291  and  _294
REMARK  121  A    between atoms: _294  and  _295
REMARK  122  A    between atoms: _301  and  _303
REMARK  123  A    between atoms: _303  and  _304
REMARK  124  A    between atoms: _303  and  _306
REMARK  125  A    between atoms: _308  and  _310
REMARK  126  A    between atoms: _310  and  _311
REMARK  127  A    between atoms: _310  and  _313
REMARK  128  A    between atoms: _313  and  _314
REMARK  129  A    between atoms: _314  and  _315
REMARK  130  A    between atoms: _315  and  _316
REMARK  131  A    between atoms: _316  and  _317
REMARK  132  A    between atoms: _321  and  _323
REMARK  133  A    between atoms: _323  and  _324
REMARK  134  A    between atoms: _323  and  _326
REMARK  135  A    between atoms: _326  and  _327
REMARK  136  A    between atoms: _330  and  _332
REMARK  137  A    between atoms: _332  and  _333
REMARK  138  A    between atoms: _332  and  _335
REMARK  139  A    between atoms: _335  and  _336
REMARK  140  A    between atoms: _336  and  _337
REMARK  141  A    between atoms: _337  and  _338
REMARK  142  A    between atoms: _347  and  _349
REMARK  143  A    between atoms: _349  and  _350
REMARK  144  A    between atoms: _349  and  _352
REMARK  145  A    between atoms: _352  and  _353
REMARK  146  A    between atoms: _356  and  _358
REMARK  147  A    between atoms: _358  and  _359
REMARK  148  A    between atoms: _358  and  _361
REMARK  149  A    between atoms: _361  and  _362
REMARK  150  A    between atoms: _362  and  _363
REMARK  151  A    between atoms: _363  and  _364
REMARK  152  A    between atoms: _364  and  _365
REMARK  153  A    between atoms: _369  and  _371
REMARK  154  A    between atoms: _371  and  _372
REMARK  155  A    between atoms: _371  and  _374
REMARK  156  A    between atoms: _374  and  _375
REMARK  157  A    between atoms: _378  and  _380
REMARK  158  A    between atoms: _380  and  _381
REMARK  159  A    between atoms: _380  and  _383
REMARK  160  A    between atoms: _383  and  _384
REMARK  161  A    between atoms: _384  and  _385
REMARK  162  A    between atoms: _385  and  MG_421
REMARK  163  A    between atoms: _387  and  _389
REMARK  164  A    between atoms: _389  and  _390
REMARK  165  A    between atoms: _389  and  _392
REMARK  166  A    between atoms: _392  and  _393
REMARK  167  A    between atoms: _393  and  _394
REMARK  168  A    between atoms: _394  and  _395
REMARK  169  A    between atoms: _404  and  _406
REMARK  170  A    between atoms: _406  and  _407
REMARK  171  A    between atoms: _410  and  _412
REMARK  172  A    between atoms: _412  and  _413
REMARK  173  A    between atoms: _412  and  _415
REMARK  174  A    between atoms: _415  and  _416
REMARK                            x       y       z     vdW  Elec       q    Type
REMARK                         _______ _______ _______ _____ _____    ______ ____
ROOT
ATOM      1  O   HOH     1      15.498  34.408  19.797  0.00  0.00    +0.000 OA
ENDROOT
TORSDOF 0
REMARK  Name = ../refined-set-2016/1q91/1q91_pocket.pdb
REMARK  174 active torsions:
REMARK  status: ('A' for Active; 'I' for Inactive)
REMARK    1  A    between atoms: _1  and  _3
REMARK    2  A    between atoms: _3  and  _4
REMARK    3  A    between atoms: _3  and  _6
REMARK    4  A    between atoms: _6  and  _7
REMARK    5  A    between atoms: _10  and  _12
REMARK    6  A    between atoms: _12  and  _13
REMARK    7  A    between atoms: _12  and  _15
REMARK    8  A    between atoms: _15  and  _16
REMARK    9  A    between atoms: _16  and  _17
REMARK   10  A    between atoms: _19  and  _21
REMARK   11  A    between atoms: _21  and  _22
REMARK   12  A    between atoms: _21  and  _24
REMARK   13  A    between atoms: _22  and  _23
REMARK   14  A    between atoms: _22  and  _28
REMARK   15  A    between atoms: _23  and  MG_421
REMARK   16  A    between atoms: _24  and  _25
REMARK   17  A    between atoms: _28  and  _30
REMARK   18  A    between atoms: _30  and  _31
REMARK   19  A    between atoms: _33  and  _35
REMARK   20  A    between atoms: _35  and  _36
REMARK   21  A    between atoms: _35  and  _38
REMARK   22  A    between atoms: _38  and  _39
REMARK   23  A    between atoms: _45  and  _47
REMARK   24  A    between atoms: _47  and  _48
REMARK   25  A    between atoms: _47  and  _50
REMARK   26  A    between atoms: _50  and  _51
REMARK   27  A    between atoms: _51  and  _52
REMARK   28  A    between atoms: _55  and  _57
REMARK   29  A    between atoms: _57  and  _58
REMARK   30  A    between atoms: _57  and  _60
REMARK   31  A    between atoms: _60  and  _61
REMARK   32  A    between atoms: _67  and  _69
REMARK   33  A    between atoms: _69  and  _70
REMARK   34  A    between atoms: _69  and  _72
REMARK   35  A    between atoms: _72  and  _73
REMARK   36  A    between atoms: _73  and  _74
REMARK   37  A    between atoms: _74  and  _75
REMARK   38  A    between atoms: _84  and  _86
REMARK   39  A    between atoms: _86  and  _87
REMARK   40  A    between atoms: _89  and  _91
REMARK   41  A    between atoms: _91  and  _92
REMARK   42  A    between atoms: _91  and  _94
REMARK   43  A    between atoms: _94  and  _95
REMARK   44  A    between atoms: _101  and  _103
REMARK   45  A    between atoms: _103  and  _104
REMARK   46  A    between atoms: _103  and  _106
REMARK   47  A    between atoms: _106  and  _107
REMARK   48  A    between atoms: _117  and  _119
REMARK   49  A    between atoms: _119  and  _120
REMARK   50  A    between atoms: _119  and  _122
REMARK   51  A    between atoms: _125  and  _127
REMARK   52  A    between atoms: _127  and  _128
REMARK   53  A    between atoms: _127  and  _130
REMARK   54  A    between atoms: _130  and  _131
REMARK   55  A    between atoms: _133  and  _135
REMARK   56  A    between atoms: _135  and  _136
REMARK   57  A    between atoms: _135  and  _138
REMARK   58  A    between atoms: _138  and  _139
REMARK   59  A    between atoms: _139  and  _140
REMARK   60  A    between atoms: _143  and  _145
REMARK   61  A    between atoms: _145  and  _146
REMARK   62  A    between atoms: _145  and  _148
REMARK   63  A    between atoms: _148  and  _149
REMARK   64  A    between atoms: _149  and  _150
REMARK   65  A    between atoms: _155  and  _157
REMARK   66  A    between atoms: _157  and  _158
REMARK   67  A    between atoms: _157  and  _160
REMARK   68  A    between atoms: _160  and  _161
REMARK   69  A    between atoms: _166  and  _167
REMARK   70  A    between atoms: _169  and  _171
REMARK   71  A    between atoms: _171  and  _172
REMARK   72  A    between atoms: _175  and  _177
REMARK   73  A    between atoms: _177  and  _178
REMARK   74  A    between atoms: _177  and  _180
REMARK   75  A    between atoms: _180  and  _181
REMARK   76  A    between atoms: _184  and  _186
REMARK   77  A    between atoms: _186  and  _187
REMARK   78  A    between atoms: _186  and  _189
REMARK   79  A    between atoms: _189  and  _190
REMARK   80  A    between atoms: _200  and  _202
REMARK   81  A    between atoms: _202  and  _203
REMARK   82  A    between atoms: _202  and  _205
REMARK   83  A    between atoms: _205  and  _206
REMARK   84  A    between atoms: _206  and  _207
REMARK   85  A    between atoms: _210  and  _212
REMARK   86  A    between atoms: _212  and  _213
REMARK   87  A    between atoms: _212  and  _215
REMARK   88  A    between atoms: _215  and  _216
REMARK   89  A    between atoms: _222  and  _224
REMARK   90  A    between atoms: _224  and  _225
REMARK   91  A    between atoms: _224  and  _227
REMARK   92  A    between atoms: _227  and  _228
REMARK   93  A    between atoms: _234  and  _236
REMARK   94  A    between atoms: _236  and  _237
REMARK   95  A    between atoms: _236  and  _239
REMARK   96  A    between atoms: _239  and  _240
REMARK   97  A    between atoms: _243  and  _245
REMARK   98  A    between atoms: _245  and  _246
REMARK   99  A    between atoms: _245  and  _248
REMARK  100  A    between atoms: _248  and  _249
REMARK  101  A    between atoms: _252  and  _253
REMARK  102  A    between atoms: _258  and  _260
REMARK  103  A    between atoms: _260  and  _261
REMARK  104  A    between atoms: _260  and  _263
REMARK  105  A    between atoms: _263  and  _264
REMARK  106  A    between atoms: _267  and  _269
REMARK  107  A    between atoms: _269  and  _270
REMARK  108  A    between atoms: _269  and  _272
REMARK  109  A    between atoms: _272  and  _273
REMARK  110  A    between atoms: _273  and  _274
REMARK  111  A    between atoms: _274  and  _275
REMARK  112  A    between atoms: _275  and  _276
REMARK  113  A    between atoms: _280  and  _282
REMARK  114  A    between atoms: _282  and  _283
REMARK  115  A    between atoms: _282  and  _285
REMARK  116  A    between atoms: _285  and  _286
REMARK  117  A    between atoms: _286  and  _287
REMARK  118  A    between atoms: _289  and  _291
REMARK  119  A    between atoms: _291  and  _292
REMARK  120  A    between atoms: _291  and  _294
REMARK  121  A    between atoms: _294  and  _295
REMARK  122  A    between atoms: _301  and  _303
REMARK  123  A    between atoms: _303  and  _304
REMARK  124  A    between atoms: _303  and  _306
REMARK  125  A    between atoms: _308  and  _310
REMARK  126  A    between atoms: _310  and  _311
REMARK  127  A    between atoms: _310  and  _313
REMARK  128  A    between atoms: _313  and  _314
REMARK  129  A    between atoms: _314  and  _315
REMARK  130  A    between atoms: _315  and  _316
REMARK  131  A    between atoms: _316  and  _317
REMARK  132  A    between atoms: _321  and  _323
REMARK  133  A    between atoms: _323  and  _324
REMARK  134  A    between atoms: _323  and  _326
REMARK  135  A    between atoms: _326  and  _327
REMARK  136  A    between atoms: _330  and  _332
REMARK  137  A    between atoms: _332  and  _333
REMARK  138  A    between atoms: _332  and  _335
REMARK  139  A    between atoms: _335  and  _336
REMARK  140  A    between atoms: _336  and  _337
REMARK  141  A    between atoms: _337  and  _338
REMARK  142  A    between atoms: _347  and  _349
REMARK  143  A    between atoms: _349  and  _350
REMARK  144  A    between atoms: _349  and  _352
REMARK  145  A    between atoms: _352  and  _353
REMARK  146  A    between atoms: _356  and  _358
REMARK  147  A    between atoms: _358  and  _359
REMARK  148  A    between atoms: _358  and  _361
REMARK  149  A    between atoms: _361  and  _362
REMARK  150  A    between atoms: _362  and  _363
REMARK  151  A    between atoms: _363  and  _364
REMARK  152  A    between atoms: _364  and  _365
REMARK  153  A    between atoms: _369  and  _371
REMARK  154  A    between atoms: _371  and  _372
REMARK  155  A    between atoms: _371  and  _374
REMARK  156  A    between atoms: _374  and  _375
REMARK  157  A    between atoms: _378  and  _380
REMARK  158  A    between atoms: _380  and  _381
REMARK  159  A    between atoms: _380  and  _383
REMARK  160  A    between atoms: _383  and  _384
REMARK  161  A    between atoms: _384  and  _385
REMARK  162  A    between atoms: _385  and  MG_421
REMARK  163  A    between atoms: _387  and  _389
REMARK  164  A    between atoms: _389  and  _390
REMARK  165  A    between atoms: _389  and  _392
REMARK  166  A    between atoms: _392  and  _393
REMARK  167  A    between atoms: _393  and  _394
REMARK  168  A    between atoms: _394  and  _395
REMARK  169  A    between atoms: _404  and  _406
REMARK  170  A    between atoms: _406  and  _407
REMARK  171  A    between atoms: _410  and  _412
REMARK  172  A    between atoms: _412  and  _413
REMARK  173  A    between atoms: _412  and  _415
REMARK  174  A    between atoms: _415  and  _416
REMARK                            x       y       z     vdW  Elec       q    Type
REMARK                         _______ _______ _______ _____ _____    ______ ____
ROOT
ATOM      1  O   HOH     1      12.399  43.327  27.669  0.00  0.00    +0.000 OA
ENDROOT
TORSDOF 0
REMARK  Name = ../refined-set-2016/1q91/1q91_pocket.pdb
REMARK  174 active torsions:
REMARK  status: ('A' for Active; 'I' for Inactive)
REMARK    1  A    between atoms: _1  and  _3
REMARK    2  A    between atoms: _3  and  _4
REMARK    3  A    between atoms: _3  and  _6
REMARK    4  A    between atoms: _6  and  _7
REMARK    5  A    between atoms: _10  and  _12
REMARK    6  A    between atoms: _12  and  _13
REMARK    7  A    between atoms: _12  and  _15
REMARK    8  A    between atoms: _15  and  _16
REMARK    9  A    between atoms: _16  and  _17
REMARK   10  A    between atoms: _19  and  _21
REMARK   11  A    between atoms: _21  and  _22
REMARK   12  A    between atoms: _21  and  _24
REMARK   13  A    between atoms: _22  and  _23
REMARK   14  A    between atoms: _22  and  _28
REMARK   15  A    between atoms: _23  and  MG_421
REMARK   16  A    between atoms: _24  and  _25
REMARK   17  A    between atoms: _28  and  _30
REMARK   18  A    between atoms: _30  and  _31
REMARK   19  A    between atoms: _33  and  _35
REMARK   20  A    between atoms: _35  and  _36
REMARK   21  A    between atoms: _35  and  _38
REMARK   22  A    between atoms: _38  and  _39
REMARK   23  A    between atoms: _45  and  _47
REMARK   24  A    between atoms: _47  and  _48
REMARK   25  A    between atoms: _47  and  _50
REMARK   26  A    between atoms: _50  and  _51
REMARK   27  A    between atoms: _51  and  _52
REMARK   28  A    between atoms: _55  and  _57
REMARK   29  A    between atoms: _57  and  _58
REMARK   30  A    between atoms: _57  and  _60
REMARK   31  A    between atoms: _60  and  _61
REMARK   32  A    between atoms: _67  and  _69
REMARK   33  A    between atoms: _69  and  _70
REMARK   34  A    between atoms: _69  and  _72
REMARK   35  A    between atoms: _72  and  _73
REMARK   36  A    between atoms: _73  and  _74
REMARK   37  A    between atoms: _74  and  _75
REMARK   38  A    between atoms: _84  and  _86
REMARK   39  A    between atoms: _86  and  _87
REMARK   40  A    between atoms: _89  and  _91
REMARK   41  A    between atoms: _91  and  _92
REMARK   42  A    between atoms: _91  and  _94
REMARK   43  A    between atoms: _94  and  _95
REMARK   44  A    between atoms: _101  and  _103
REMARK   45  A    between atoms: _103  and  _104
REMARK   46  A    between atoms: _103  and  _106
REMARK   47  A    between atoms: _106  and  _107
REMARK   48  A    between atoms: _117  and  _119
REMARK   49  A    between atoms: _119  and  _120
REMARK   50  A    between atoms: _119  and  _122
REMARK   51  A    between atoms: _125  and  _127
REMARK   52  A    between atoms: _127  and  _128
REMARK   53  A    between atoms: _127  and  _130
REMARK   54  A    between atoms: _130  and  _131
REMARK   55  A    between atoms: _133  and  _135
REMARK   56  A    between atoms: _135  and  _136
REMARK   57  A    between atoms: _135  and  _138
REMARK   58  A    between atoms: _138  and  _139
REMARK   59  A    between atoms: _139  and  _140
REMARK   60  A    between atoms: _143  and  _145
REMARK   61  A    between atoms: _145  and  _146
REMARK   62  A    between atoms: _145  and  _148
REMARK   63  A    between atoms: _148  and  _149
REMARK   64  A    between atoms: _149  and  _150
REMARK   65  A    between atoms: _155  and  _157
REMARK   66  A    between atoms: _157  and  _158
REMARK   67  A    between atoms: _157  and  _160
REMARK   68  A    between atoms: _160  and  _161
REMARK   69  A    between atoms: _166  and  _167
REMARK   70  A    between atoms: _169  and  _171
REMARK   71  A    between atoms: _171  and  _172
REMARK   72  A    between atoms: _175  and  _177
REMARK   73  A    between atoms: _177  and  _178
REMARK   74  A    between atoms: _177  and  _180
REMARK   75  A    between atoms: _180  and  _181
REMARK   76  A    between atoms: _184  and  _186
REMARK   77  A    between atoms: _186  and  _187
REMARK   78  A    between atoms: _186  and  _189
REMARK   79  A    between atoms: _189  and  _190
REMARK   80  A    between atoms: _200  and  _202
REMARK   81  A    between atoms: _202  and  _203
REMARK   82  A    between atoms: _202  and  _205
REMARK   83  A    between atoms: _205  and  _206
REMARK   84  A    between atoms: _206  and  _207
REMARK   85  A    between atoms: _210  and  _212
REMARK   86  A    between atoms: _212  and  _213
REMARK   87  A    between atoms: _212  and  _215
REMARK   88  A    between atoms: _215  and  _216
REMARK   89  A    between atoms: _222  and  _224
REMARK   90  A    between atoms: _224  and  _225
REMARK   91  A    between atoms: _224  and  _227
REMARK   92  A    between atoms: _227  and  _228
REMARK   93  A    between atoms: _234  and  _236
REMARK   94  A    between atoms: _236  and  _237
REMARK   95  A    between atoms: _236  and  _239
REMARK   96  A    between atoms: _239  and  _240
REMARK   97  A    between atoms: _243  and  _245
REMARK   98  A    between atoms: _245  and  _246
REMARK   99  A    between atoms: _245  and  _248
REMARK  100  A    between atoms: _248  and  _249
REMARK  101  A    between atoms: _252  and  _253
REMARK  102  A    between atoms: _258  and  _260
REMARK  103  A    between atoms: _260  and  _261
REMARK  104  A    between atoms: _260  and  _263
REMARK  105  A    between atoms: _263  and  _264
REMARK  106  A    between atoms: _267  and  _269
REMARK  107  A    between atoms: _269  and  _270
REMARK  108  A    between atoms: _269  and  _272
REMARK  109  A    between atoms: _272  and  _273
REMARK  110  A    between atoms: _273  and  _274
REMARK  111  A    between atoms: _274  and  _275
REMARK  112  A    between atoms: _275  and  _276
REMARK  113  A    between atoms: _280  and  _282
REMARK  114  A    between atoms: _282  and  _283
REMARK  115  A    between atoms: _282  and  _285
REMARK  116  A    between atoms: _285  and  _286
REMARK  117  A    between atoms: _286  and  _287
REMARK  118  A    between atoms: _289  and  _291
REMARK  119  A    between atoms: _291  and  _292
REMARK  120  A    between atoms: _291  and  _294
REMARK  121  A    between atoms: _294  and  _295
REMARK  122  A    between atoms: _301  and  _303
REMARK  123  A    between atoms: _303  and  _304
REMARK  124  A    between atoms: _303  and  _306
REMARK  125  A    between atoms: _308  and  _310
REMARK  126  A    between atoms: _310  and  _311
REMARK  127  A    between atoms: _310  and  _313
REMARK  128  A    between atoms: _313  and  _314
REMARK  129  A    between atoms: _314  and  _315
REMARK  130  A    between atoms: _315  and  _316
REMARK  131  A    between atoms: _316  and  _317
REMARK  132  A    between atoms: _321  and  _323
REMARK  133  A    between atoms: _323  and  _324
REMARK  134  A    between atoms: _323  and  _326
REMARK  135  A    between atoms: _326  and  _327
REMARK  136  A    between atoms: _330  and  _332
REMARK  137  A    between atoms: _332  and  _333
REMARK  138  A    between atoms: _332  and  _335
REMARK  139  A    between atoms: _335  and  _336
REMARK  140  A    between atoms: _336  and  _337
REMARK  141  A    between atoms: _337  and  _338
REMARK  142  A    between atoms: _347  and  _349
REMARK  143  A    between atoms: _349  and  _350
REMARK  144  A    between atoms: _349  and  _352
REMARK  145  A    between atoms: _352  and  _353
REMARK  146  A    between atoms: _356  and  _358
REMARK  147  A    between atoms: _358  and  _359
REMARK  148  A    between atoms: _358  and  _361
REMARK  149  A    between atoms: _361  and  _362
REMARK  150  A    between atoms: _362  and  _363
REMARK  151  A    between atoms: _363  and  _364
REMARK  152  A    between atoms: _364  and  _365
REMARK  153  A    between atoms: _369  and  _371
REMARK  154  A    between atoms: _371  and  _372
REMARK  155  A    between atoms: _371  and  _374
REMARK  156  A    between atoms: _374  and  _375
REMARK  157  A    between atoms: _378  and  _380
REMARK  158  A    between atoms: _380  and  _381
REMARK  159  A    between atoms: _380  and  _383
REMARK  160  A    between atoms: _383  and  _384
REMARK  161  A    between atoms: _384  and  _385
REMARK  162  A    between atoms: _385  and  MG_421
REMARK  163  A    between atoms: _387  and  _389
REMARK  164  A    between atoms: _389  and  _390
REMARK  165  A    between atoms: _389  and  _392
REMARK  166  A    between atoms: _392  and  _393
REMARK  167  A    between atoms: _393  and  _394
REMARK  168  A    between atoms: _394  and  _395
REMARK  169  A    between atoms: _404  and  _406
REMARK  170  A    between atoms: _406  and  _407
REMARK  171  A    between atoms: _410  and  _412
REMARK  172  A    between atoms: _412  and  _413
REMARK  173  A    between atoms: _412  and  _415
REMARK  174  A    between atoms: _415  and  _416
REMARK                            x       y       z     vdW  Elec       q    Type
REMARK                         _______ _______ _______ _____ _____    ______ ____
ROOT
ATOM      1  O   HOH     1       5.801  40.065  16.941  0.00  0.00    +0.000 OA
ENDROOT
TORSDOF 0
REMARK  Name = ../refined-set-2016/1q91/1q91_pocket.pdb
REMARK  174 active torsions:
REMARK  status: ('A' for Active; 'I' for Inactive)
REMARK    1  A    between atoms: _1  and  _3
REMARK    2  A    between atoms: _3  and  _4
REMARK    3  A    between atoms: _3  and  _6
REMARK    4  A    between atoms: _6  and  _7
REMARK    5  A    between atoms: _10  and  _12
REMARK    6  A    between atoms: _12  and  _13
REMARK    7  A    between atoms: _12  and  _15
REMARK    8  A    between atoms: _15  and  _16
REMARK    9  A    between atoms: _16  and  _17
REMARK   10  A    between atoms: _19  and  _21
REMARK   11  A    between atoms: _21  and  _22
REMARK   12  A    between atoms: _21  and  _24
REMARK   13  A    between atoms: _22  and  _23
REMARK   14  A    between atoms: _22  and  _28
REMARK   15  A    between atoms: _23  and  MG_421
REMARK   16  A    between atoms: _24  and  _25
REMARK   17  A    between atoms: _28  and  _30
REMARK   18  A    between atoms: _30  and  _31
REMARK   19  A    between atoms: _33  and  _35
REMARK   20  A    between atoms: _35  and  _36
REMARK   21  A    between atoms: _35  and  _38
REMARK   22  A    between atoms: _38  and  _39
REMARK   23  A    between atoms: _45  and  _47
REMARK   24  A    between atoms: _47  and  _48
REMARK   25  A    between atoms: _47  and  _50
REMARK   26  A    between atoms: _50  and  _51
REMARK   27  A    between atoms: _51  and  _52
REMARK   28  A    between atoms: _55  and  _57
REMARK   29  A    between atoms: _57  and  _58
REMARK   30  A    between atoms: _57  and  _60
REMARK   31  A    between atoms: _60  and  _61
REMARK   32  A    between atoms: _67  and  _69
REMARK   33  A    between atoms: _69  and  _70
REMARK   34  A    between atoms: _69  and  _72
REMARK   35  A    between atoms: _72  and  _73
REMARK   36  A    between atoms: _73  and  _74
REMARK   37  A    between atoms: _74  and  _75
REMARK   38  A    between atoms: _84  and  _86
REMARK   39  A    between atoms: _86  and  _87
REMARK   40  A    between atoms: _89  and  _91
REMARK   41  A    between atoms: _91  and  _92
REMARK   42  A    between atoms: _91  and  _94
REMARK   43  A    between atoms: _94  and  _95
REMARK   44  A    between atoms: _101  and  _103
REMARK   45  A    between atoms: _103  and  _104
REMARK   46  A    between atoms: _103  and  _106
REMARK   47  A    between atoms: _106  and  _107
REMARK   48  A    between atoms: _117  and  _119
REMARK   49  A    between atoms: _119  and  _120
REMARK   50  A    between atoms: _119  and  _122
REMARK   51  A    between atoms: _125  and  _127
REMARK   52  A    between atoms: _127  and  _128
REMARK   53  A    between atoms: _127  and  _130
REMARK   54  A    between atoms: _130  and  _131
REMARK   55  A    between atoms: _133  and  _135
REMARK   56  A    between atoms: _135  and  _136
REMARK   57  A    between atoms: _135  and  _138
REMARK   58  A    between atoms: _138  and  _139
REMARK   59  A    between atoms: _139  and  _140
REMARK   60  A    between atoms: _143  and  _145
REMARK   61  A    between atoms: _145  and  _146
REMARK   62  A    between atoms: _145  and  _148
REMARK   63  A    between atoms: _148  and  _149
REMARK   64  A    between atoms: _149  and  _150
REMARK   65  A    between atoms: _155  and  _157
REMARK   66  A    between atoms: _157  and  _158
REMARK   67  A    between atoms: _157  and  _160
REMARK   68  A    between atoms: _160  and  _161
REMARK   69  A    between atoms: _166  and  _167
REMARK   70  A    between atoms: _169  and  _171
REMARK   71  A    between atoms: _171  and  _172
REMARK   72  A    between atoms: _175  and  _177
REMARK   73  A    between atoms: _177  and  _178
REMARK   74  A    between atoms: _177  and  _180
REMARK   75  A    between atoms: _180  and  _181
REMARK   76  A    between atoms: _184  and  _186
REMARK   77  A    between atoms: _186  and  _187
REMARK   78  A    between atoms: _186  and  _189
REMARK   79  A    between atoms: _189  and  _190
REMARK   80  A    between atoms: _200  and  _202
REMARK   81  A    between atoms: _202  and  _203
REMARK   82  A    between atoms: _202  and  _205
REMARK   83  A    between atoms: _205  and  _206
REMARK   84  A    between atoms: _206  and  _207
REMARK   85  A    between atoms: _210  and  _212
REMARK   86  A    between atoms: _212  and  _213
REMARK   87  A    between atoms: _212  and  _215
REMARK   88  A    between atoms: _215  and  _216
REMARK   89  A    between atoms: _222  and  _224
REMARK   90  A    between atoms: _224  and  _225
REMARK   91  A    between atoms: _224  and  _227
REMARK   92  A    between atoms: _227  and  _228
REMARK   93  A    between atoms: _234  and  _236
REMARK   94  A    between atoms: _236  and  _237
REMARK   95  A    between atoms: _236  and  _239
REMARK   96  A    between atoms: _239  and  _240
REMARK   97  A    between atoms: _243  and  _245
REMARK   98  A    between atoms: _245  and  _246
REMARK   99  A    between atoms: _245  and  _248
REMARK  100  A    between atoms: _248  and  _249
REMARK  101  A    between atoms: _252  and  _253
REMARK  102  A    between atoms: _258  and  _260
REMARK  103  A    between atoms: _260  and  _261
REMARK  104  A    between atoms: _260  and  _263
REMARK  105  A    between atoms: _263  and  _264
REMARK  106  A    between atoms: _267  and  _269
REMARK  107  A    between atoms: _269  and  _270
REMARK  108  A    between atoms: _269  and  _272
REMARK  109  A    between atoms: _272  and  _273
REMARK  110  A    between atoms: _273  and  _274
REMARK  111  A    between atoms: _274  and  _275
REMARK  112  A    between atoms: _275  and  _276
REMARK  113  A    between atoms: _280  and  _282
REMARK  114  A    between atoms: _282  and  _283
REMARK  115  A    between atoms: _282  and  _285
REMARK  116  A    between atoms: _285  and  _286
REMARK  117  A    between atoms: _286  and  _287
REMARK  118  A    between atoms: _289  and  _291
REMARK  119  A    between atoms: _291  and  _292
REMARK  120  A    between atoms: _291  and  _294
REMARK  121  A    between atoms: _294  and  _295
REMARK  122  A    between atoms: _301  and  _303
REMARK  123  A    between atoms: _303  and  _304
REMARK  124  A    between atoms: _303  and  _306
REMARK  125  A    between atoms: _308  and  _310
REMARK  126  A    between atoms: _310  and  _311
REMARK  127  A    between atoms: _310  and  _313
REMARK  128  A    between atoms: _313  and  _314
REMARK  129  A    between atoms: _314  and  _315
REMARK  130  A    between atoms: _315  and  _316
REMARK  131  A    between atoms: _316  and  _317
REMARK  132  A    between atoms: _321  and  _323
REMARK  133  A    between atoms: _323  and  _324
REMARK  134  A    between atoms: _323  and  _326
REMARK  135  A    between atoms: _326  and  _327
REMARK  136  A    between atoms: _330  and  _332
REMARK  137  A    between atoms: _332  and  _333
REMARK  138  A    between atoms: _332  and  _335
REMARK  139  A    between atoms: _335  and  _336
REMARK  140  A    between atoms: _336  and  _337
REMARK  141  A    between atoms: _337  and  _338
REMARK  142  A    between atoms: _347  and  _349
REMARK  143  A    between atoms: _349  and  _350
REMARK  144  A    between atoms: _349  and  _352
REMARK  145  A    between atoms: _352  and  _353
REMARK  146  A    between atoms: _356  and  _358
REMARK  147  A    between atoms: _358  and  _359
REMARK  148  A    between atoms: _358  and  _361
REMARK  149  A    between atoms: _361  and  _362
REMARK  150  A    between atoms: _362  and  _363
REMARK  151  A    between atoms: _363  and  _364
REMARK  152  A    between atoms: _364  and  _365
REMARK  153  A    between atoms: _369  and  _371
REMARK  154  A    between atoms: _371  and  _372
REMARK  155  A    between atoms: _371  and  _374
REMARK  156  A    between atoms: _374  and  _375
REMARK  157  A    between atoms: _378  and  _380
REMARK  158  A    between atoms: _380  and  _381
REMARK  159  A    between atoms: _380  and  _383
REMARK  160  A    between atoms: _383  and  _384
REMARK  161  A    between atoms: _384  and  _385
REMARK  162  A    between atoms: _385  and  MG_421
REMARK  163  A    between atoms: _387  and  _389
REMARK  164  A    between atoms: _389  and  _390
REMARK  165  A    between atoms: _389  and  _392
REMARK  166  A    between atoms: _392  and  _393
REMARK  167  A    between atoms: _393  and  _394
REMARK  168  A    between atoms: _394  and  _395
REMARK  169  A    between atoms: _404  and  _406
REMARK  170  A    between atoms: _406  and  _407
REMARK  171  A    between atoms: _410  and  _412
REMARK  172  A    between atoms: _412  and  _413
REMARK  173  A    between atoms: _412  and  _415
REMARK  174  A    between atoms: _415  and  _416
REMARK                            x       y       z     vdW  Elec       q    Type
REMARK                         _______ _______ _______ _____ _____    ______ ____
ROOT
ATOM      1  O   HOH     1       7.209  38.015  23.931  0.00  0.00    +0.000 OA
ENDROOT
TORSDOF 0
REMARK  Name = ../refined-set-2016/1q91/1q91_pocket.pdb
REMARK  174 active torsions:
REMARK  status: ('A' for Active; 'I' for Inactive)
REMARK    1  A    between atoms: _1  and  _3
REMARK    2  A    between atoms: _3  and  _4
REMARK    3  A    between atoms: _3  and  _6
REMARK    4  A    between atoms: _6  and  _7
REMARK    5  A    between atoms: _10  and  _12
REMARK    6  A    between atoms: _12  and  _13
REMARK    7  A    between atoms: _12  and  _15
REMARK    8  A    between atoms: _15  and  _16
REMARK    9  A    between atoms: _16  and  _17
REMARK   10  A    between atoms: _19  and  _21
REMARK   11  A    between atoms: _21  and  _22
REMARK   12  A    between atoms: _21  and  _24
REMARK   13  A    between atoms: _22  and  _23
REMARK   14  A    between atoms: _22  and  _28
REMARK   15  A    between atoms: _23  and  MG_421
REMARK   16  A    between atoms: _24  and  _25
REMARK   17  A    between atoms: _28  and  _30
REMARK   18  A    between atoms: _30  and  _31
REMARK   19  A    between atoms: _33  and  _35
REMARK   20  A    between atoms: _35  and  _36
REMARK   21  A    between atoms: _35  and  _38
REMARK   22  A    between atoms: _38  and  _39
REMARK   23  A    between atoms: _45  and  _47
REMARK   24  A    between atoms: _47  and  _48
REMARK   25  A    between atoms: _47  and  _50
REMARK   26  A    between atoms: _50  and  _51
REMARK   27  A    between atoms: _51  and  _52
REMARK   28  A    between atoms: _55  and  _57
REMARK   29  A    between atoms: _57  and  _58
REMARK   30  A    between atoms: _57  and  _60
REMARK   31  A    between atoms: _60  and  _61
REMARK   32  A    between atoms: _67  and  _69
REMARK   33  A    between atoms: _69  and  _70
REMARK   34  A    between atoms: _69  and  _72
REMARK   35  A    between atoms: _72  and  _73
REMARK   36  A    between atoms: _73  and  _74
REMARK   37  A    between atoms: _74  and  _75
REMARK   38  A    between atoms: _84  and  _86
REMARK   39  A    between atoms: _86  and  _87
REMARK   40  A    between atoms: _89  and  _91
REMARK   41  A    between atoms: _91  and  _92
REMARK   42  A    between atoms: _91  and  _94
REMARK   43  A    between atoms: _94  and  _95
REMARK   44  A    between atoms: _101  and  _103
REMARK   45  A    between atoms: _103  and  _104
REMARK   46  A    between atoms: _103  and  _106
REMARK   47  A    between atoms: _106  and  _107
REMARK   48  A    between atoms: _117  and  _119
REMARK   49  A    between atoms: _119  and  _120
REMARK   50  A    between atoms: _119  and  _122
REMARK   51  A    between atoms: _125  and  _127
REMARK   52  A    between atoms: _127  and  _128
REMARK   53  A    between atoms: _127  and  _130
REMARK   54  A    between atoms: _130  and  _131
REMARK   55  A    between atoms: _133  and  _135
REMARK   56  A    between atoms: _135  and  _136
REMARK   57  A    between atoms: _135  and  _138
REMARK   58  A    between atoms: _138  and  _139
REMARK   59  A    between atoms: _139  and  _140
REMARK   60  A    between atoms: _143  and  _145
REMARK   61  A    between atoms: _145  and  _146
REMARK   62  A    between atoms: _145  and  _148
REMARK   63  A    between atoms: _148  and  _149
REMARK   64  A    between atoms: _149  and  _150
REMARK   65  A    between atoms: _155  and  _157
REMARK   66  A    between atoms: _157  and  _158
REMARK   67  A    between atoms: _157  and  _160
REMARK   68  A    between atoms: _160  and  _161
REMARK   69  A    between atoms: _166  and  _167
REMARK   70  A    between atoms: _169  and  _171
REMARK   71  A    between atoms: _171  and  _172
REMARK   72  A    between atoms: _175  and  _177
REMARK   73  A    between atoms: _177  and  _178
REMARK   74  A    between atoms: _177  and  _180
REMARK   75  A    between atoms: _180  and  _181
REMARK   76  A    between atoms: _184  and  _186
REMARK   77  A    between atoms: _186  and  _187
REMARK   78  A    between atoms: _186  and  _189
REMARK   79  A    between atoms: _189  and  _190
REMARK   80  A    between atoms: _200  and  _202
REMARK   81  A    between atoms: _202  and  _203
REMARK   82  A    between atoms: _202  and  _205
REMARK   83  A    between atoms: _205  and  _206
REMARK   84  A    between atoms: _206  and  _207
REMARK   85  A    between atoms: _210  and  _212
REMARK   86  A    between atoms: _212  and  _213
REMARK   87  A    between atoms: _212  and  _215
REMARK   88  A    between atoms: _215  and  _216
REMARK   89  A    between atoms: _222  and  _224
REMARK   90  A    between atoms: _224  and  _225
REMARK   91  A    between atoms: _224  and  _227
REMARK   92  A    between atoms: _227  and  _228
REMARK   93  A    between atoms: _234  and  _236
REMARK   94  A    between atoms: _236  and  _237
REMARK   95  A    between atoms: _236  and  _239
REMARK   96  A    between atoms: _239  and  _240
REMARK   97  A    between atoms: _243  and  _245
REMARK   98  A    between atoms: _245  and  _246
REMARK   99  A    between atoms: _245  and  _248
REMARK  100  A    between atoms: _248  and  _249
REMARK  101  A    between atoms: _252  and  _253
REMARK  102  A    between atoms: _258  and  _260
REMARK  103  A    between atoms: _260  and  _261
REMARK  104  A    between atoms: _260  and  _263
REMARK  105  A    between atoms: _263  and  _264
REMARK  106  A    between atoms: _267  and  _269
REMARK  107  A    between atoms: _269  and  _270
REMARK  108  A    between atoms: _269  and  _272
REMARK  109  A    between atoms: _272  and  _273
REMARK  110  A    between atoms: _273  and  _274
REMARK  111  A    between atoms: _274  and  _275
REMARK  112  A    between atoms: _275  and  _276
REMARK  113  A    between atoms: _280  and  _282
REMARK  114  A    between atoms: _282  and  _283
REMARK  115  A    between atoms: _282  and  _285
REMARK  116  A    between atoms: _285  and  _286
REMARK  117  A    between atoms: _286  and  _287
REMARK  118  A    between atoms: _289  and  _291
REMARK  119  A    between atoms: _291  and  _292
REMARK  120  A    between atoms: _291  and  _294
REMARK  121  A    between atoms: _294  and  _295
REMARK  122  A    between atoms: _301  and  _303
REMARK  123  A    between atoms: _303  and  _304
REMARK  124  A    between atoms: _303  and  _306
REMARK  125  A    between atoms: _308  and  _310
REMARK  126  A    between atoms: _310  and  _311
REMARK  127  A    between atoms: _310  and  _313
REMARK  128  A    between atoms: _313  and  _314
REMARK  129  A    between atoms: _314  and  _315
REMARK  130  A    between atoms: _315  and  _316
REMARK  131  A    between atoms: _316  and  _317
REMARK  132  A    between atoms: _321  and  _323
REMARK  133  A    between atoms: _323  and  _324
REMARK  134  A    between atoms: _323  and  _326
REMARK  135  A    between atoms: _326  and  _327
REMARK  136  A    between atoms: _330  and  _332
REMARK  137  A    between atoms: _332  and  _333
REMARK  138  A    between atoms: _332  and  _335
REMARK  139  A    between atoms: _335  and  _336
REMARK  140  A    between atoms: _336  and  _337
REMARK  141  A    between atoms: _337  and  _338
REMARK  142  A    between atoms: _347  and  _349
REMARK  143  A    between atoms: _349  and  _350
REMARK  144  A    between atoms: _349  and  _352
REMARK  145  A    between atoms: _352  and  _353
REMARK  146  A    between atoms: _356  and  _358
REMARK  147  A    between atoms: _358  and  _359
REMARK  148  A    between atoms: _358  and  _361
REMARK  149  A    between atoms: _361  and  _362
REMARK  150  A    between atoms: _362  and  _363
REMARK  151  A    between atoms: _363  and  _364
REMARK  152  A    between atoms: _364  and  _365
REMARK  153  A    between atoms: _369  and  _371
REMARK  154  A    between atoms: _371  and  _372
REMARK  155  A    between atoms: _371  and  _374
REMARK  156  A    between atoms: _374  and  _375
REMARK  157  A    between atoms: _378  and  _380
REMARK  158  A    between atoms: _380  and  _381
REMARK  159  A    between atoms: _380  and  _383
REMARK  160  A    between atoms: _383  and  _384
REMARK  161  A    between atoms: _384  and  _385
REMARK  162  A    between atoms: _385  and  MG_421
REMARK  163  A    between atoms: _387  and  _389
REMARK  164  A    between atoms: _389  and  _390
REMARK  165  A    between atoms: _389  and  _392
REMARK  166  A    between atoms: _392  and  _393
REMARK  167  A    between atoms: _393  and  _394
REMARK  168  A    between atoms: _394  and  _395
REMARK  169  A    between atoms: _404  and  _406
REMARK  170  A    between atoms: _406  and  _407
REMARK  171  A    between atoms: _410  and  _412
REMARK  172  A    between atoms: _412  and  _413
REMARK  173  A    between atoms: _412  and  _415
REMARK  174  A    between atoms: _415  and  _416
REMARK                            x       y       z     vdW  Elec       q    Type
REMARK                         _______ _______ _______ _____ _____    ______ ____
ROOT
ATOM      1  O   HOH     1      22.247  37.478  20.713  0.00  0.00    +0.000 OA
ENDROOT
TORSDOF 0
REMARK  Name = ../refined-set-2016/1q91/1q91_pocket.pdb
REMARK  174 active torsions:
REMARK  status: ('A' for Active; 'I' for Inactive)
REMARK    1  A    between atoms: _1  and  _3
REMARK    2  A    between atoms: _3  and  _4
REMARK    3  A    between atoms: _3  and  _6
REMARK    4  A    between atoms: _6  and  _7
REMARK    5  A    between atoms: _10  and  _12
REMARK    6  A    between atoms: _12  and  _13
REMARK    7  A    between atoms: _12  and  _15
REMARK    8  A    between atoms: _15  and  _16
REMARK    9  A    between atoms: _16  and  _17
REMARK   10  A    between atoms: _19  and  _21
REMARK   11  A    between atoms: _21  and  _22
REMARK   12  A    between atoms: _21  and  _24
REMARK   13  A    between atoms: _22  and  _23
REMARK   14  A    between atoms: _22  and  _28
REMARK   15  A    between atoms: _23  and  MG_421
REMARK   16  A    between atoms: _24  and  _25
REMARK   17  A    between atoms: _28  and  _30
REMARK   18  A    between atoms: _30  and  _31
REMARK   19  A    between atoms: _33  and  _35
REMARK   20  A    between atoms: _35  and  _36
REMARK   21  A    between atoms: _35  and  _38
REMARK   22  A    between atoms: _38  and  _39
REMARK   23  A    between atoms: _45  and  _47
REMARK   24  A    between atoms: _47  and  _48
REMARK   25  A    between atoms: _47  and  _50
REMARK   26  A    between atoms: _50  and  _51
REMARK   27  A    between atoms: _51  and  _52
REMARK   28  A    between atoms: _55  and  _57
REMARK   29  A    between atoms: _57  and  _58
REMARK   30  A    between atoms: _57  and  _60
REMARK   31  A    between atoms: _60  and  _61
REMARK   32  A    between atoms: _67  and  _69
REMARK   33  A    between atoms: _69  and  _70
REMARK   34  A    between atoms: _69  and  _72
REMARK   35  A    between atoms: _72  and  _73
REMARK   36  A    between atoms: _73  and  _74
REMARK   37  A    between atoms: _74  and  _75
REMARK   38  A    between atoms: _84  and  _86
REMARK   39  A    between atoms: _86  and  _87
REMARK   40  A    between atoms: _89  and  _91
REMARK   41  A    between atoms: _91  and  _92
REMARK   42  A    between atoms: _91  and  _94
REMARK   43  A    between atoms: _94  and  _95
REMARK   44  A    between atoms: _101  and  _103
REMARK   45  A    between atoms: _103  and  _104
REMARK   46  A    between atoms: _103  and  _106
REMARK   47  A    between atoms: _106  and  _107
REMARK   48  A    between atoms: _117  and  _119
REMARK   49  A    between atoms: _119  and  _120
REMARK   50  A    between atoms: _119  and  _122
REMARK   51  A    between atoms: _125  and  _127
REMARK   52  A    between atoms: _127  and  _128
REMARK   53  A    between atoms: _127  and  _130
REMARK   54  A    between atoms: _130  and  _131
REMARK   55  A    between atoms: _133  and  _135
REMARK   56  A    between atoms: _135  and  _136
REMARK   57  A    between atoms: _135  and  _138
REMARK   58  A    between atoms: _138  and  _139
REMARK   59  A    between atoms: _139  and  _140
REMARK   60  A    between atoms: _143  and  _145
REMARK   61  A    between atoms: _145  and  _146
REMARK   62  A    between atoms: _145  and  _148
REMARK   63  A    between atoms: _148  and  _149
REMARK   64  A    between atoms: _149  and  _150
REMARK   65  A    between atoms: _155  and  _157
REMARK   66  A    between atoms: _157  and  _158
REMARK   67  A    between atoms: _157  and  _160
REMARK   68  A    between atoms: _160  and  _161
REMARK   69  A    between atoms: _166  and  _167
REMARK   70  A    between atoms: _169  and  _171
REMARK   71  A    between atoms: _171  and  _172
REMARK   72  A    between atoms: _175  and  _177
REMARK   73  A    between atoms: _177  and  _178
REMARK   74  A    between atoms: _177  and  _180
REMARK   75  A    between atoms: _180  and  _181
REMARK   76  A    between atoms: _184  and  _186
REMARK   77  A    between atoms: _186  and  _187
REMARK   78  A    between atoms: _186  and  _189
REMARK   79  A    between atoms: _189  and  _190
REMARK   80  A    between atoms: _200  and  _202
REMARK   81  A    between atoms: _202  and  _203
REMARK   82  A    between atoms: _202  and  _205
REMARK   83  A    between atoms: _205  and  _206
REMARK   84  A    between atoms: _206  and  _207
REMARK   85  A    between atoms: _210  and  _212
REMARK   86  A    between atoms: _212  and  _213
REMARK   87  A    between atoms: _212  and  _215
REMARK   88  A    between atoms: _215  and  _216
REMARK   89  A    between atoms: _222  and  _224
REMARK   90  A    between atoms: _224  and  _225
REMARK   91  A    between atoms: _224  and  _227
REMARK   92  A    between atoms: _227  and  _228
REMARK   93  A    between atoms: _234  and  _236
REMARK   94  A    between atoms: _236  and  _237
REMARK   95  A    between atoms: _236  and  _239
REMARK   96  A    between atoms: _239  and  _240
REMARK   97  A    between atoms: _243  and  _245
REMARK   98  A    between atoms: _245  and  _246
REMARK   99  A    between atoms: _245  and  _248
REMARK  100  A    between atoms: _248  and  _249
REMARK  101  A    between atoms: _252  and  _253
REMARK  102  A    between atoms: _258  and  _260
REMARK  103  A    between atoms: _260  and  _261
REMARK  104  A    between atoms: _260  and  _263
REMARK  105  A    between atoms: _263  and  _264
REMARK  106  A    between atoms: _267  and  _269
REMARK  107  A    between atoms: _269  and  _270
REMARK  108  A    between atoms: _269  and  _272
REMARK  109  A    between atoms: _272  and  _273
REMARK  110  A    between atoms: _273  and  _274
REMARK  111  A    between atoms: _274  and  _275
REMARK  112  A    between atoms: _275  and  _276
REMARK  113  A    between atoms: _280  and  _282
REMARK  114  A    between atoms: _282  and  _283
REMARK  115  A    between atoms: _282  and  _285
REMARK  116  A    between atoms: _285  and  _286
REMARK  117  A    between atoms: _286  and  _287
REMARK  118  A    between atoms: _289  and  _291
REMARK  119  A    between atoms: _291  and  _292
REMARK  120  A    between atoms: _291  and  _294
REMARK  121  A    between atoms: _294  and  _295
REMARK  122  A    between atoms: _301  and  _303
REMARK  123  A    between atoms: _303  and  _304
REMARK  124  A    between atoms: _303  and  _306
REMARK  125  A    between atoms: _308  and  _310
REMARK  126  A    between atoms: _310  and  _311
REMARK  127  A    between atoms: _310  and  _313
REMARK  128  A    between atoms: _313  and  _314
REMARK  129  A    between atoms: _314  and  _315
REMARK  130  A    between atoms: _315  and  _316
REMARK  131  A    between atoms: _316  and  _317
REMARK  132  A    between atoms: _321  and  _323
REMARK  133  A    between atoms: _323  and  _324
REMARK  134  A    between atoms: _323  and  _326
REMARK  135  A    between atoms: _326  and  _327
REMARK  136  A    between atoms: _330  and  _332
REMARK  137  A    between atoms: _332  and  _333
REMARK  138  A    between atoms: _332  and  _335
REMARK  139  A    between atoms: _335  and  _336
REMARK  140  A    between atoms: _336  and  _337
REMARK  141  A    between atoms: _337  and  _338
REMARK  142  A    between atoms: _347  and  _349
REMARK  143  A    between atoms: _349  and  _350
REMARK  144  A    between atoms: _349  and  _352
REMARK  145  A    between atoms: _352  and  _353
REMARK  146  A    between atoms: _356  and  _358
REMARK  147  A    between atoms: _358  and  _359
REMARK  148  A    between atoms: _358  and  _361
REMARK  149  A    between atoms: _361  and  _362
REMARK  150  A    between atoms: _362  and  _363
REMARK  151  A    between atoms: _363  and  _364
REMARK  152  A    between atoms: _364  and  _365
REMARK  153  A    between atoms: _369  and  _371
REMARK  154  A    between atoms: _371  and  _372
REMARK  155  A    between atoms: _371  and  _374
REMARK  156  A    between atoms: _374  and  _375
REMARK  157  A    between atoms: _378  and  _380
REMARK  158  A    between atoms: _380  and  _381
REMARK  159  A    between atoms: _380  and  _383
REMARK  160  A    between atoms: _383  and  _384
REMARK  161  A    between atoms: _384  and  _385
REMARK  162  A    between atoms: _385  and  MG_421
REMARK  163  A    between atoms: _387  and  _389
REMARK  164  A    between atoms: _389  and  _390
REMARK  165  A    between atoms: _389  and  _392
REMARK  166  A    between atoms: _392  and  _393
REMARK  167  A    between atoms: _393  and  _394
REMARK  168  A    between atoms: _394  and  _395
REMARK  169  A    between atoms: _404  and  _406
REMARK  170  A    between atoms: _406  and  _407
REMARK  171  A    between atoms: _410  and  _412
REMARK  172  A    between atoms: _412  and  _413
REMARK  173  A    between atoms: _412  and  _415
REMARK  174  A    between atoms: _415  and  _416
REMARK                            x       y       z     vdW  Elec       q    Type
REMARK                         _______ _______ _______ _____ _____    ______ ____
ROOT
ATOM      1  O   HOH     1      10.277  36.257  36.787  0.00  0.00    +0.000 OA
ENDROOT
TORSDOF 0
REMARK  Name = ../refined-set-2016/1q91/1q91_pocket.pdb
REMARK  174 active torsions:
REMARK  status: ('A' for Active; 'I' for Inactive)
REMARK    1  A    between atoms: _1  and  _3
REMARK    2  A    between atoms: _3  and  _4
REMARK    3  A    between atoms: _3  and  _6
REMARK    4  A    between atoms: _6  and  _7
REMARK    5  A    between atoms: _10  and  _12
REMARK    6  A    between atoms: _12  and  _13
REMARK    7  A    between atoms: _12  and  _15
REMARK    8  A    between atoms: _15  and  _16
REMARK    9  A    between atoms: _16  and  _17
REMARK   10  A    between atoms: _19  and  _21
REMARK   11  A    between atoms: _21  and  _22
REMARK   12  A    between atoms: _21  and  _24
REMARK   13  A    between atoms: _22  and  _23
REMARK   14  A    between atoms: _22  and  _28
REMARK   15  A    between atoms: _23  and  MG_421
REMARK   16  A    between atoms: _24  and  _25
REMARK   17  A    between atoms: _28  and  _30
REMARK   18  A    between atoms: _30  and  _31
REMARK   19  A    between atoms: _33  and  _35
REMARK   20  A    between atoms: _35  and  _36
REMARK   21  A    between atoms: _35  and  _38
REMARK   22  A    between atoms: _38  and  _39
REMARK   23  A    between atoms: _45  and  _47
REMARK   24  A    between atoms: _47  and  _48
REMARK   25  A    between atoms: _47  and  _50
REMARK   26  A    between atoms: _50  and  _51
REMARK   27  A    between atoms: _51  and  _52
REMARK   28  A    between atoms: _55  and  _57
REMARK   29  A    between atoms: _57  and  _58
REMARK   30  A    between atoms: _57  and  _60
REMARK   31  A    between atoms: _60  and  _61
REMARK   32  A    between atoms: _67  and  _69
REMARK   33  A    between atoms: _69  and  _70
REMARK   34  A    between atoms: _69  and  _72
REMARK   35  A    between atoms: _72  and  _73
REMARK   36  A    between atoms: _73  and  _74
REMARK   37  A    between atoms: _74  and  _75
REMARK   38  A    between atoms: _84  and  _86
REMARK   39  A    between atoms: _86  and  _87
REMARK   40  A    between atoms: _89  and  _91
REMARK   41  A    between atoms: _91  and  _92
REMARK   42  A    between atoms: _91  and  _94
REMARK   43  A    between atoms: _94  and  _95
REMARK   44  A    between atoms: _101  and  _103
REMARK   45  A    between atoms: _103  and  _104
REMARK   46  A    between atoms: _103  and  _106
REMARK   47  A    between atoms: _106  and  _107
REMARK   48  A    between atoms: _117  and  _119
REMARK   49  A    between atoms: _119  and  _120
REMARK   50  A    between atoms: _119  and  _122
REMARK   51  A    between atoms: _125  and  _127
REMARK   52  A    between atoms: _127  and  _128
REMARK   53  A    between atoms: _127  and  _130
REMARK   54  A    between atoms: _130  and  _131
REMARK   55  A    between atoms: _133  and  _135
REMARK   56  A    between atoms: _135  and  _136
REMARK   57  A    between atoms: _135  and  _138
REMARK   58  A    between atoms: _138  and  _139
REMARK   59  A    between atoms: _139  and  _140
REMARK   60  A    between atoms: _143  and  _145
REMARK   61  A    between atoms: _145  and  _146
REMARK   62  A    between atoms: _145  and  _148
REMARK   63  A    between atoms: _148  and  _149
REMARK   64  A    between atoms: _149  and  _150
REMARK   65  A    between atoms: _155  and  _157
REMARK   66  A    between atoms: _157  and  _158
REMARK   67  A    between atoms: _157  and  _160
REMARK   68  A    between atoms: _160  and  _161
REMARK   69  A    between atoms: _166  and  _167
REMARK   70  A    between atoms: _169  and  _171
REMARK   71  A    between atoms: _171  and  _172
REMARK   72  A    between atoms: _175  and  _177
REMARK   73  A    between atoms: _177  and  _178
REMARK   74  A    between atoms: _177  and  _180
REMARK   75  A    between atoms: _180  and  _181
REMARK   76  A    between atoms: _184  and  _186
REMARK   77  A    between atoms: _186  and  _187
REMARK   78  A    between atoms: _186  and  _189
REMARK   79  A    between atoms: _189  and  _190
REMARK   80  A    between atoms: _200  and  _202
REMARK   81  A    between atoms: _202  and  _203
REMARK   82  A    between atoms: _202  and  _205
REMARK   83  A    between atoms: _205  and  _206
REMARK   84  A    between atoms: _206  and  _207
REMARK   85  A    between atoms: _210  and  _212
REMARK   86  A    between atoms: _212  and  _213
REMARK   87  A    between atoms: _212  and  _215
REMARK   88  A    between atoms: _215  and  _216
REMARK   89  A    between atoms: _222  and  _224
REMARK   90  A    between atoms: _224  and  _225
REMARK   91  A    between atoms: _224  and  _227
REMARK   92  A    between atoms: _227  and  _228
REMARK   93  A    between atoms: _234  and  _236
REMARK   94  A    between atoms: _236  and  _237
REMARK   95  A    between atoms: _236  and  _239
REMARK   96  A    between atoms: _239  and  _240
REMARK   97  A    between atoms: _243  and  _245
REMARK   98  A    between atoms: _245  and  _246
REMARK   99  A    between atoms: _245  and  _248
REMARK  100  A    between atoms: _248  and  _249
REMARK  101  A    between atoms: _252  and  _253
REMARK  102  A    between atoms: _258  and  _260
REMARK  103  A    between atoms: _260  and  _261
REMARK  104  A    between atoms: _260  and  _263
REMARK  105  A    between atoms: _263  and  _264
REMARK  106  A    between atoms: _267  and  _269
REMARK  107  A    between atoms: _269  and  _270
REMARK  108  A    between atoms: _269  and  _272
REMARK  109  A    between atoms: _272  and  _273
REMARK  110  A    between atoms: _273  and  _274
REMARK  111  A    between atoms: _274  and  _275
REMARK  112  A    between atoms: _275  and  _276
REMARK  113  A    between atoms: _280  and  _282
REMARK  114  A    between atoms: _282  and  _283
REMARK  115  A    between atoms: _282  and  _285
REMARK  116  A    between atoms: _285  and  _286
REMARK  117  A    between atoms: _286  and  _287
REMARK  118  A    between atoms: _289  and  _291
REMARK  119  A    between atoms: _291  and  _292
REMARK  120  A    between atoms: _291  and  _294
REMARK  121  A    between atoms: _294  and  _295
REMARK  122  A    between atoms: _301  and  _303
REMARK  123  A    between atoms: _303  and  _304
REMARK  124  A    between atoms: _303  and  _306
REMARK  125  A    between atoms: _308  and  _310
REMARK  126  A    between atoms: _310  and  _311
REMARK  127  A    between atoms: _310  and  _313
REMARK  128  A    between atoms: _313  and  _314
REMARK  129  A    between atoms: _314  and  _315
REMARK  130  A    between atoms: _315  and  _316
REMARK  131  A    between atoms: _316  and  _317
REMARK  132  A    between atoms: _321  and  _323
REMARK  133  A    between atoms: _323  and  _324
REMARK  134  A    between atoms: _323  and  _326
REMARK  135  A    between atoms: _326  and  _327
REMARK  136  A    between atoms: _330  and  _332
REMARK  137  A    between atoms: _332  and  _333
REMARK  138  A    between atoms: _332  and  _335
REMARK  139  A    between atoms: _335  and  _336
REMARK  140  A    between atoms: _336  and  _337
REMARK  141  A    between atoms: _337  and  _338
REMARK  142  A    between atoms: _347  and  _349
REMARK  143  A    between atoms: _349  and  _350
REMARK  144  A    between atoms: _349  and  _352
REMARK  145  A    between atoms: _352  and  _353
REMARK  146  A    between atoms: _356  and  _358
REMARK  147  A    between atoms: _358  and  _359
REMARK  148  A    between atoms: _358  and  _361
REMARK  149  A    between atoms: _361  and  _362
REMARK  150  A    between atoms: _362  and  _363
REMARK  151  A    between atoms: _363  and  _364
REMARK  152  A    between atoms: _364  and  _365
REMARK  153  A    between atoms: _369  and  _371
REMARK  154  A    between atoms: _371  and  _372
REMARK  155  A    between atoms: _371  and  _374
REMARK  156  A    between atoms: _374  and  _375
REMARK  157  A    between atoms: _378  and  _380
REMARK  158  A    between atoms: _380  and  _381
REMARK  159  A    between atoms: _380  and  _383
REMARK  160  A    between atoms: _383  and  _384
REMARK  161  A    between atoms: _384  and  _385
REMARK  162  A    between atoms: _385  and  MG_421
REMARK  163  A    between atoms: _387  and  _389
REMARK  164  A    between atoms: _389  and  _390
REMARK  165  A    between atoms: _389  and  _392
REMARK  166  A    between atoms: _392  and  _393
REMARK  167  A    between atoms: _393  and  _394
REMARK  168  A    between atoms: _394  and  _395
REMARK  169  A    between atoms: _404  and  _406
REMARK  170  A    between atoms: _406  and  _407
REMARK  171  A    between atoms: _410  and  _412
REMARK  172  A    between atoms: _412  and  _413
REMARK  173  A    between atoms: _412  and  _415
REMARK  174  A    between atoms: _415  and  _416
REMARK                            x       y       z     vdW  Elec       q    Type
REMARK                         _______ _______ _______ _____ _____    ______ ____
ROOT
ATOM      1  O   HOH     1       7.365  38.840  21.283  0.00  0.00    +0.000 OA
ENDROOT
TORSDOF 0
REMARK  Name = ../refined-set-2016/1q91/1q91_pocket.pdb
REMARK  174 active torsions:
REMARK  status: ('A' for Active; 'I' for Inactive)
REMARK    1  A    between atoms: _1  and  _3
REMARK    2  A    between atoms: _3  and  _4
REMARK    3  A    between atoms: _3  and  _6
REMARK    4  A    between atoms: _6  and  _7
REMARK    5  A    between atoms: _10  and  _12
REMARK    6  A    between atoms: _12  and  _13
REMARK    7  A    between atoms: _12  and  _15
REMARK    8  A    between atoms: _15  and  _16
REMARK    9  A    between atoms: _16  and  _17
REMARK   10  A    between atoms: _19  and  _21
REMARK   11  A    between atoms: _21  and  _22
REMARK   12  A    between atoms: _21  and  _24
REMARK   13  A    between atoms: _22  and  _23
REMARK   14  A    between atoms: _22  and  _28
REMARK   15  A    between atoms: _23  and  MG_421
REMARK   16  A    between atoms: _24  and  _25
REMARK   17  A    between atoms: _28  and  _30
REMARK   18  A    between atoms: _30  and  _31
REMARK   19  A    between atoms: _33  and  _35
REMARK   20  A    between atoms: _35  and  _36
REMARK   21  A    between atoms: _35  and  _38
REMARK   22  A    between atoms: _38  and  _39
REMARK   23  A    between atoms: _45  and  _47
REMARK   24  A    between atoms: _47  and  _48
REMARK   25  A    between atoms: _47  and  _50
REMARK   26  A    between atoms: _50  and  _51
REMARK   27  A    between atoms: _51  and  _52
REMARK   28  A    between atoms: _55  and  _57
REMARK   29  A    between atoms: _57  and  _58
REMARK   30  A    between atoms: _57  and  _60
REMARK   31  A    between atoms: _60  and  _61
REMARK   32  A    between atoms: _67  and  _69
REMARK   33  A    between atoms: _69  and  _70
REMARK   34  A    between atoms: _69  and  _72
REMARK   35  A    between atoms: _72  and  _73
REMARK   36  A    between atoms: _73  and  _74
REMARK   37  A    between atoms: _74  and  _75
REMARK   38  A    between atoms: _84  and  _86
REMARK   39  A    between atoms: _86  and  _87
REMARK   40  A    between atoms: _89  and  _91
REMARK   41  A    between atoms: _91  and  _92
REMARK   42  A    between atoms: _91  and  _94
REMARK   43  A    between atoms: _94  and  _95
REMARK   44  A    between atoms: _101  and  _103
REMARK   45  A    between atoms: _103  and  _104
REMARK   46  A    between atoms: _103  and  _106
REMARK   47  A    between atoms: _106  and  _107
REMARK   48  A    between atoms: _117  and  _119
REMARK   49  A    between atoms: _119  and  _120
REMARK   50  A    between atoms: _119  and  _122
REMARK   51  A    between atoms: _125  and  _127
REMARK   52  A    between atoms: _127  and  _128
REMARK   53  A    between atoms: _127  and  _130
REMARK   54  A    between atoms: _130  and  _131
REMARK   55  A    between atoms: _133  and  _135
REMARK   56  A    between atoms: _135  and  _136
REMARK   57  A    between atoms: _135  and  _138
REMARK   58  A    between atoms: _138  and  _139
REMARK   59  A    between atoms: _139  and  _140
REMARK   60  A    between atoms: _143  and  _145
REMARK   61  A    between atoms: _145  and  _146
REMARK   62  A    between atoms: _145  and  _148
REMARK   63  A    between atoms: _148  and  _149
REMARK   64  A    between atoms: _149  and  _150
REMARK   65  A    between atoms: _155  and  _157
REMARK   66  A    between atoms: _157  and  _158
REMARK   67  A    between atoms: _157  and  _160
REMARK   68  A    between atoms: _160  and  _161
REMARK   69  A    between atoms: _166  and  _167
REMARK   70  A    between atoms: _169  and  _171
REMARK   71  A    between atoms: _171  and  _172
REMARK   72  A    between atoms: _175  and  _177
REMARK   73  A    between atoms: _177  and  _178
REMARK   74  A    between atoms: _177  and  _180
REMARK   75  A    between atoms: _180  and  _181
REMARK   76  A    between atoms: _184  and  _186
REMARK   77  A    between atoms: _186  and  _187
REMARK   78  A    between atoms: _186  and  _189
REMARK   79  A    between atoms: _189  and  _190
REMARK   80  A    between atoms: _200  and  _202
REMARK   81  A    between atoms: _202  and  _203
REMARK   82  A    between atoms: _202  and  _205
REMARK   83  A    between atoms: _205  and  _206
REMARK   84  A    between atoms: _206  and  _207
REMARK   85  A    between atoms: _210  and  _212
REMARK   86  A    between atoms: _212  and  _213
REMARK   87  A    between atoms: _212  and  _215
REMARK   88  A    between atoms: _215  and  _216
REMARK   89  A    between atoms: _222  and  _224
REMARK   90  A    between atoms: _224  and  _225
REMARK   91  A    between atoms: _224  and  _227
REMARK   92  A    between atoms: _227  and  _228
REMARK   93  A    between atoms: _234  and  _236
REMARK   94  A    between atoms: _236  and  _237
REMARK   95  A    between atoms: _236  and  _239
REMARK   96  A    between atoms: _239  and  _240
REMARK   97  A    between atoms: _243  and  _245
REMARK   98  A    between atoms: _245  and  _246
REMARK   99  A    between atoms: _245  and  _248
REMARK  100  A    between atoms: _248  and  _249
REMARK  101  A    between atoms: _252  and  _253
REMARK  102  A    between atoms: _258  and  _260
REMARK  103  A    between atoms: _260  and  _261
REMARK  104  A    between atoms: _260  and  _263
REMARK  105  A    between atoms: _263  and  _264
REMARK  106  A    between atoms: _267  and  _269
REMARK  107  A    between atoms: _269  and  _270
REMARK  108  A    between atoms: _269  and  _272
REMARK  109  A    between atoms: _272  and  _273
REMARK  110  A    between atoms: _273  and  _274
REMARK  111  A    between atoms: _274  and  _275
REMARK  112  A    between atoms: _275  and  _276
REMARK  113  A    between atoms: _280  and  _282
REMARK  114  A    between atoms: _282  and  _283
REMARK  115  A    between atoms: _282  and  _285
REMARK  116  A    between atoms: _285  and  _286
REMARK  117  A    between atoms: _286  and  _287
REMARK  118  A    between atoms: _289  and  _291
REMARK  119  A    between atoms: _291  and  _292
REMARK  120  A    between atoms: _291  and  _294
REMARK  121  A    between atoms: _294  and  _295
REMARK  122  A    between atoms: _301  and  _303
REMARK  123  A    between atoms: _303  and  _304
REMARK  124  A    between atoms: _303  and  _306
REMARK  125  A    between atoms: _308  and  _310
REMARK  126  A    between atoms: _310  and  _311
REMARK  127  A    between atoms: _310  and  _313
REMARK  128  A    between atoms: _313  and  _314
REMARK  129  A    between atoms: _314  and  _315
REMARK  130  A    between atoms: _315  and  _316
REMARK  131  A    between atoms: _316  and  _317
REMARK  132  A    between atoms: _321  and  _323
REMARK  133  A    between atoms: _323  and  _324
REMARK  134  A    between atoms: _323  and  _326
REMARK  135  A    between atoms: _326  and  _327
REMARK  136  A    between atoms: _330  and  _332
REMARK  137  A    between atoms: _332  and  _333
REMARK  138  A    between atoms: _332  and  _335
REMARK  139  A    between atoms: _335  and  _336
REMARK  140  A    between atoms: _336  and  _337
REMARK  141  A    between atoms: _337  and  _338
REMARK  142  A    between atoms: _347  and  _349
REMARK  143  A    between atoms: _349  and  _350
REMARK  144  A    between atoms: _349  and  _352
REMARK  145  A    between atoms: _352  and  _353
REMARK  146  A    between atoms: _356  and  _358
REMARK  147  A    between atoms: _358  and  _359
REMARK  148  A    between atoms: _358  and  _361
REMARK  149  A    between atoms: _361  and  _362
REMARK  150  A    between atoms: _362  and  _363
REMARK  151  A    between atoms: _363  and  _364
REMARK  152  A    between atoms: _364  and  _365
REMARK  153  A    between atoms: _369  and  _371
REMARK  154  A    between atoms: _371  and  _372
REMARK  155  A    between atoms: _371  and  _374
REMARK  156  A    between atoms: _374  and  _375
REMARK  157  A    between atoms: _378  and  _380
REMARK  158  A    between atoms: _380  and  _381
REMARK  159  A    between atoms: _380  and  _383
REMARK  160  A    between atoms: _383  and  _384
REMARK  161  A    between atoms: _384  and  _385
REMARK  162  A    between atoms: _385  and  MG_421
REMARK  163  A    between atoms: _387  and  _389
REMARK  164  A    between atoms: _389  and  _390
REMARK  165  A    between atoms: _389  and  _392
REMARK  166  A    between atoms: _392  and  _393
REMARK  167  A    between atoms: _393  and  _394
REMARK  168  A    between atoms: _394  and  _395
REMARK  169  A    between atoms: _404  and  _406
REMARK  170  A    between atoms: _406  and  _407
REMARK  171  A    between atoms: _410  and  _412
REMARK  172  A    between atoms: _412  and  _413
REMARK  173  A    between atoms: _412  and  _415
REMARK  174  A    between atoms: _415  and  _416
REMARK                            x       y       z     vdW  Elec       q    Type
REMARK                         _______ _______ _______ _____ _____    ______ ____
ROOT
ATOM      1  O   HOH     1      14.398  44.745  28.025  0.00  0.00    +0.000 OA
ENDROOT
TORSDOF 0
REMARK  Name = ../refined-set-2016/1q91/1q91_pocket.pdb
REMARK  174 active torsions:
REMARK  status: ('A' for Active; 'I' for Inactive)
REMARK    1  A    between atoms: _1  and  _3
REMARK    2  A    between atoms: _3  and  _4
REMARK    3  A    between atoms: _3  and  _6
REMARK    4  A    between atoms: _6  and  _7
REMARK    5  A    between atoms: _10  and  _12
REMARK    6  A    between atoms: _12  and  _13
REMARK    7  A    between atoms: _12  and  _15
REMARK    8  A    between atoms: _15  and  _16
REMARK    9  A    between atoms: _16  and  _17
REMARK   10  A    between atoms: _19  and  _21
REMARK   11  A    between atoms: _21  and  _22
REMARK   12  A    between atoms: _21  and  _24
REMARK   13  A    between atoms: _22  and  _23
REMARK   14  A    between atoms: _22  and  _28
REMARK   15  A    between atoms: _23  and  MG_421
REMARK   16  A    between atoms: _24  and  _25
REMARK   17  A    between atoms: _28  and  _30
REMARK   18  A    between atoms: _30  and  _31
REMARK   19  A    between atoms: _33  and  _35
REMARK   20  A    between atoms: _35  and  _36
REMARK   21  A    between atoms: _35  and  _38
REMARK   22  A    between atoms: _38  and  _39
REMARK   23  A    between atoms: _45  and  _47
REMARK   24  A    between atoms: _47  and  _48
REMARK   25  A    between atoms: _47  and  _50
REMARK   26  A    between atoms: _50  and  _51
REMARK   27  A    between atoms: _51  and  _52
REMARK   28  A    between atoms: _55  and  _57
REMARK   29  A    between atoms: _57  and  _58
REMARK   30  A    between atoms: _57  and  _60
REMARK   31  A    between atoms: _60  and  _61
REMARK   32  A    between atoms: _67  and  _69
REMARK   33  A    between atoms: _69  and  _70
REMARK   34  A    between atoms: _69  and  _72
REMARK   35  A    between atoms: _72  and  _73
REMARK   36  A    between atoms: _73  and  _74
REMARK   37  A    between atoms: _74  and  _75
REMARK   38  A    between atoms: _84  and  _86
REMARK   39  A    between atoms: _86  and  _87
REMARK   40  A    between atoms: _89  and  _91
REMARK   41  A    between atoms: _91  and  _92
REMARK   42  A    between atoms: _91  and  _94
REMARK   43  A    between atoms: _94  and  _95
REMARK   44  A    between atoms: _101  and  _103
REMARK   45  A    between atoms: _103  and  _104
REMARK   46  A    between atoms: _103  and  _106
REMARK   47  A    between atoms: _106  and  _107
REMARK   48  A    between atoms: _117  and  _119
REMARK   49  A    between atoms: _119  and  _120
REMARK   50  A    between atoms: _119  and  _122
REMARK   51  A    between atoms: _125  and  _127
REMARK   52  A    between atoms: _127  and  _128
REMARK   53  A    between atoms: _127  and  _130
REMARK   54  A    between atoms: _130  and  _131
REMARK   55  A    between atoms: _133  and  _135
REMARK   56  A    between atoms: _135  and  _136
REMARK   57  A    between atoms: _135  and  _138
REMARK   58  A    between atoms: _138  and  _139
REMARK   59  A    between atoms: _139  and  _140
REMARK   60  A    between atoms: _143  and  _145
REMARK   61  A    between atoms: _145  and  _146
REMARK   62  A    between atoms: _145  and  _148
REMARK   63  A    between atoms: _148  and  _149
REMARK   64  A    between atoms: _149  and  _150
REMARK   65  A    between atoms: _155  and  _157
REMARK   66  A    between atoms: _157  and  _158
REMARK   67  A    between atoms: _157  and  _160
REMARK   68  A    between atoms: _160  and  _161
REMARK   69  A    between atoms: _166  and  _167
REMARK   70  A    between atoms: _169  and  _171
REMARK   71  A    between atoms: _171  and  _172
REMARK   72  A    between atoms: _175  and  _177
REMARK   73  A    between atoms: _177  and  _178
REMARK   74  A    between atoms: _177  and  _180
REMARK   75  A    between atoms: _180  and  _181
REMARK   76  A    between atoms: _184  and  _186
REMARK   77  A    between atoms: _186  and  _187
REMARK   78  A    between atoms: _186  and  _189
REMARK   79  A    between atoms: _189  and  _190
REMARK   80  A    between atoms: _200  and  _202
REMARK   81  A    between atoms: _202  and  _203
REMARK   82  A    between atoms: _202  and  _205
REMARK   83  A    between atoms: _205  and  _206
REMARK   84  A    between atoms: _206  and  _207
REMARK   85  A    between atoms: _210  and  _212
REMARK   86  A    between atoms: _212  and  _213
REMARK   87  A    between atoms: _212  and  _215
REMARK   88  A    between atoms: _215  and  _216
REMARK   89  A    between atoms: _222  and  _224
REMARK   90  A    between atoms: _224  and  _225
REMARK   91  A    between atoms: _224  and  _227
REMARK   92  A    between atoms: _227  and  _228
REMARK   93  A    between atoms: _234  and  _236
REMARK   94  A    between atoms: _236  and  _237
REMARK   95  A    between atoms: _236  and  _239
REMARK   96  A    between atoms: _239  and  _240
REMARK   97  A    between atoms: _243  and  _245
REMARK   98  A    between atoms: _245  and  _246
REMARK   99  A    between atoms: _245  and  _248
REMARK  100  A    between atoms: _248  and  _249
REMARK  101  A    between atoms: _252  and  _253
REMARK  102  A    between atoms: _258  and  _260
REMARK  103  A    between atoms: _260  and  _261
REMARK  104  A    between atoms: _260  and  _263
REMARK  105  A    between atoms: _263  and  _264
REMARK  106  A    between atoms: _267  and  _269
REMARK  107  A    between atoms: _269  and  _270
REMARK  108  A    between atoms: _269  and  _272
REMARK  109  A    between atoms: _272  and  _273
REMARK  110  A    between atoms: _273  and  _274
REMARK  111  A    between atoms: _274  and  _275
REMARK  112  A    between atoms: _275  and  _276
REMARK  113  A    between atoms: _280  and  _282
REMARK  114  A    between atoms: _282  and  _283
REMARK  115  A    between atoms: _282  and  _285
REMARK  116  A    between atoms: _285  and  _286
REMARK  117  A    between atoms: _286  and  _287
REMARK  118  A    between atoms: _289  and  _291
REMARK  119  A    between atoms: _291  and  _292
REMARK  120  A    between atoms: _291  and  _294
REMARK  121  A    between atoms: _294  and  _295
REMARK  122  A    between atoms: _301  and  _303
REMARK  123  A    between atoms: _303  and  _304
REMARK  124  A    between atoms: _303  and  _306
REMARK  125  A    between atoms: _308  and  _310
REMARK  126  A    between atoms: _310  and  _311
REMARK  127  A    between atoms: _310  and  _313
REMARK  128  A    between atoms: _313  and  _314
REMARK  129  A    between atoms: _314  and  _315
REMARK  130  A    between atoms: _315  and  _316
REMARK  131  A    between atoms: _316  and  _317
REMARK  132  A    between atoms: _321  and  _323
REMARK  133  A    between atoms: _323  and  _324
REMARK  134  A    between atoms: _323  and  _326
REMARK  135  A    between atoms: _326  and  _327
REMARK  136  A    between atoms: _330  and  _332
REMARK  137  A    between atoms: _332  and  _333
REMARK  138  A    between atoms: _332  and  _335
REMARK  139  A    between atoms: _335  and  _336
REMARK  140  A    between atoms: _336  and  _337
REMARK  141  A    between atoms: _337  and  _338
REMARK  142  A    between atoms: _347  and  _349
REMARK  143  A    between atoms: _349  and  _350
REMARK  144  A    between atoms: _349  and  _352
REMARK  145  A    between atoms: _352  and  _353
REMARK  146  A    between atoms: _356  and  _358
REMARK  147  A    between atoms: _358  and  _359
REMARK  148  A    between atoms: _358  and  _361
REMARK  149  A    between atoms: _361  and  _362
REMARK  150  A    between atoms: _362  and  _363
REMARK  151  A    between atoms: _363  and  _364
REMARK  152  A    between atoms: _364  and  _365
REMARK  153  A    between atoms: _369  and  _371
REMARK  154  A    between atoms: _371  and  _372
REMARK  155  A    between atoms: _371  and  _374
REMARK  156  A    between atoms: _374  and  _375
REMARK  157  A    between atoms: _378  and  _380
REMARK  158  A    between atoms: _380  and  _381
REMARK  159  A    between atoms: _380  and  _383
REMARK  160  A    between atoms: _383  and  _384
REMARK  161  A    between atoms: _384  and  _385
REMARK  162  A    between atoms: _385  and  MG_421
REMARK  163  A    between atoms: _387  and  _389
REMARK  164  A    between atoms: _389  and  _390
REMARK  165  A    between atoms: _389  and  _392
REMARK  166  A    between atoms: _392  and  _393
REMARK  167  A    between atoms: _393  and  _394
REMARK  168  A    between atoms: _394  and  _395
REMARK  169  A    between atoms: _404  and  _406
REMARK  170  A    between atoms: _406  and  _407
REMARK  171  A    between atoms: _410  and  _412
REMARK  172  A    between atoms: _412  and  _413
REMARK  173  A    between atoms: _412  and  _415
REMARK  174  A    between atoms: _415  and  _416
REMARK                            x       y       z     vdW  Elec       q    Type
REMARK                         _______ _______ _______ _____ _____    ______ ____
ROOT
ATOM      1  O   HOH     1      19.110  38.817  22.024  0.00  0.00    +0.000 OA
ENDROOT
TORSDOF 0
REMARK  Name = ../refined-set-2016/1q91/1q91_pocket.pdb
REMARK  174 active torsions:
REMARK  status: ('A' for Active; 'I' for Inactive)
REMARK    1  A    between atoms: _1  and  _3
REMARK    2  A    between atoms: _3  and  _4
REMARK    3  A    between atoms: _3  and  _6
REMARK    4  A    between atoms: _6  and  _7
REMARK    5  A    between atoms: _10  and  _12
REMARK    6  A    between atoms: _12  and  _13
REMARK    7  A    between atoms: _12  and  _15
REMARK    8  A    between atoms: _15  and  _16
REMARK    9  A    between atoms: _16  and  _17
REMARK   10  A    between atoms: _19  and  _21
REMARK   11  A    between atoms: _21  and  _22
REMARK   12  A    between atoms: _21  and  _24
REMARK   13  A    between atoms: _22  and  _23
REMARK   14  A    between atoms: _22  and  _28
REMARK   15  A    between atoms: _23  and  MG_421
REMARK   16  A    between atoms: _24  and  _25
REMARK   17  A    between atoms: _28  and  _30
REMARK   18  A    between atoms: _30  and  _31
REMARK   19  A    between atoms: _33  and  _35
REMARK   20  A    between atoms: _35  and  _36
REMARK   21  A    between atoms: _35  and  _38
REMARK   22  A    between atoms: _38  and  _39
REMARK   23  A    between atoms: _45  and  _47
REMARK   24  A    between atoms: _47  and  _48
REMARK   25  A    between atoms: _47  and  _50
REMARK   26  A    between atoms: _50  and  _51
REMARK   27  A    between atoms: _51  and  _52
REMARK   28  A    between atoms: _55  and  _57
REMARK   29  A    between atoms: _57  and  _58
REMARK   30  A    between atoms: _57  and  _60
REMARK   31  A    between atoms: _60  and  _61
REMARK   32  A    between atoms: _67  and  _69
REMARK   33  A    between atoms: _69  and  _70
REMARK   34  A    between atoms: _69  and  _72
REMARK   35  A    between atoms: _72  and  _73
REMARK   36  A    between atoms: _73  and  _74
REMARK   37  A    between atoms: _74  and  _75
REMARK   38  A    between atoms: _84  and  _86
REMARK   39  A    between atoms: _86  and  _87
REMARK   40  A    between atoms: _89  and  _91
REMARK   41  A    between atoms: _91  and  _92
REMARK   42  A    between atoms: _91  and  _94
REMARK   43  A    between atoms: _94  and  _95
REMARK   44  A    between atoms: _101  and  _103
REMARK   45  A    between atoms: _103  and  _104
REMARK   46  A    between atoms: _103  and  _106
REMARK   47  A    between atoms: _106  and  _107
REMARK   48  A    between atoms: _117  and  _119
REMARK   49  A    between atoms: _119  and  _120
REMARK   50  A    between atoms: _119  and  _122
REMARK   51  A    between atoms: _125  and  _127
REMARK   52  A    between atoms: _127  and  _128
REMARK   53  A    between atoms: _127  and  _130
REMARK   54  A    between atoms: _130  and  _131
REMARK   55  A    between atoms: _133  and  _135
REMARK   56  A    between atoms: _135  and  _136
REMARK   57  A    between atoms: _135  and  _138
REMARK   58  A    between atoms: _138  and  _139
REMARK   59  A    between atoms: _139  and  _140
REMARK   60  A    between atoms: _143  and  _145
REMARK   61  A    between atoms: _145  and  _146
REMARK   62  A    between atoms: _145  and  _148
REMARK   63  A    between atoms: _148  and  _149
REMARK   64  A    between atoms: _149  and  _150
REMARK   65  A    between atoms: _155  and  _157
REMARK   66  A    between atoms: _157  and  _158
REMARK   67  A    between atoms: _157  and  _160
REMARK   68  A    between atoms: _160  and  _161
REMARK   69  A    between atoms: _166  and  _167
REMARK   70  A    between atoms: _169  and  _171
REMARK   71  A    between atoms: _171  and  _172
REMARK   72  A    between atoms: _175  and  _177
REMARK   73  A    between atoms: _177  and  _178
REMARK   74  A    between atoms: _177  and  _180
REMARK   75  A    between atoms: _180  and  _181
REMARK   76  A    between atoms: _184  and  _186
REMARK   77  A    between atoms: _186  and  _187
REMARK   78  A    between atoms: _186  and  _189
REMARK   79  A    between atoms: _189  and  _190
REMARK   80  A    between atoms: _200  and  _202
REMARK   81  A    between atoms: _202  and  _203
REMARK   82  A    between atoms: _202  and  _205
REMARK   83  A    between atoms: _205  and  _206
REMARK   84  A    between atoms: _206  and  _207
REMARK   85  A    between atoms: _210  and  _212
REMARK   86  A    between atoms: _212  and  _213
REMARK   87  A    between atoms: _212  and  _215
REMARK   88  A    between atoms: _215  and  _216
REMARK   89  A    between atoms: _222  and  _224
REMARK   90  A    between atoms: _224  and  _225
REMARK   91  A    between atoms: _224  and  _227
REMARK   92  A    between atoms: _227  and  _228
REMARK   93  A    between atoms: _234  and  _236
REMARK   94  A    between atoms: _236  and  _237
REMARK   95  A    between atoms: _236  and  _239
REMARK   96  A    between atoms: _239  and  _240
REMARK   97  A    between atoms: _243  and  _245
REMARK   98  A    between atoms: _245  and  _246
REMARK   99  A    between atoms: _245  and  _248
REMARK  100  A    between atoms: _248  and  _249
REMARK  101  A    between atoms: _252  and  _253
REMARK  102  A    between atoms: _258  and  _260
REMARK  103  A    between atoms: _260  and  _261
REMARK  104  A    between atoms: _260  and  _263
REMARK  105  A    between atoms: _263  and  _264
REMARK  106  A    between atoms: _267  and  _269
REMARK  107  A    between atoms: _269  and  _270
REMARK  108  A    between atoms: _269  and  _272
REMARK  109  A    between atoms: _272  and  _273
REMARK  110  A    between atoms: _273  and  _274
REMARK  111  A    between atoms: _274  and  _275
REMARK  112  A    between atoms: _275  and  _276
REMARK  113  A    between atoms: _280  and  _282
REMARK  114  A    between atoms: _282  and  _283
REMARK  115  A    between atoms: _282  and  _285
REMARK  116  A    between atoms: _285  and  _286
REMARK  117  A    between atoms: _286  and  _287
REMARK  118  A    between atoms: _289  and  _291
REMARK  119  A    between atoms: _291  and  _292
REMARK  120  A    between atoms: _291  and  _294
REMARK  121  A    between atoms: _294  and  _295
REMARK  122  A    between atoms: _301  and  _303
REMARK  123  A    between atoms: _303  and  _304
REMARK  124  A    between atoms: _303  and  _306
REMARK  125  A    between atoms: _308  and  _310
REMARK  126  A    between atoms: _310  and  _311
REMARK  127  A    between atoms: _310  and  _313
REMARK  128  A    between atoms: _313  and  _314
REMARK  129  A    between atoms: _314  and  _315
REMARK  130  A    between atoms: _315  and  _316
REMARK  131  A    between atoms: _316  and  _317
REMARK  132  A    between atoms: _321  and  _323
REMARK  133  A    between atoms: _323  and  _324
REMARK  134  A    between atoms: _323  and  _326
REMARK  135  A    between atoms: _326  and  _327
REMARK  136  A    between atoms: _330  and  _332
REMARK  137  A    between atoms: _332  and  _333
REMARK  138  A    between atoms: _332  and  _335
REMARK  139  A    between atoms: _335  and  _336
REMARK  140  A    between atoms: _336  and  _337
REMARK  141  A    between atoms: _337  and  _338
REMARK  142  A    between atoms: _347  and  _349
REMARK  143  A    between atoms: _349  and  _350
REMARK  144  A    between atoms: _349  and  _352
REMARK  145  A    between atoms: _352  and  _353
REMARK  146  A    between atoms: _356  and  _358
REMARK  147  A    between atoms: _358  and  _359
REMARK  148  A    between atoms: _358  and  _361
REMARK  149  A    between atoms: _361  and  _362
REMARK  150  A    between atoms: _362  and  _363
REMARK  151  A    between atoms: _363  and  _364
REMARK  152  A    between atoms: _364  and  _365
REMARK  153  A    between atoms: _369  and  _371
REMARK  154  A    between atoms: _371  and  _372
REMARK  155  A    between atoms: _371  and  _374
REMARK  156  A    between atoms: _374  and  _375
REMARK  157  A    between atoms: _378  and  _380
REMARK  158  A    between atoms: _380  and  _381
REMARK  159  A    between atoms: _380  and  _383
REMARK  160  A    between atoms: _383  and  _384
REMARK  161  A    between atoms: _384  and  _385
REMARK  162  A    between atoms: _385  and  MG_421
REMARK  163  A    between atoms: _387  and  _389
REMARK  164  A    between atoms: _389  and  _390
REMARK  165  A    between atoms: _389  and  _392
REMARK  166  A    between atoms: _392  and  _393
REMARK  167  A    between atoms: _393  and  _394
REMARK  168  A    between atoms: _394  and  _395
REMARK  169  A    between atoms: _404  and  _406
REMARK  170  A    between atoms: _406  and  _407
REMARK  171  A    between atoms: _410  and  _412
REMARK  172  A    between atoms: _412  and  _413
REMARK  173  A    between atoms: _412  and  _415
REMARK  174  A    between atoms: _415  and  _416
REMARK                            x       y       z     vdW  Elec       q    Type
REMARK                         _______ _______ _______ _____ _____    ______ ____
ROOT
ATOM      1  O   HOH     1      19.548  35.676  21.162  0.00  0.00    +0.000 OA
ENDROOT
TORSDOF 0
REMARK  Name = ../refined-set-2016/1q91/1q91_pocket.pdb
REMARK  174 active torsions:
REMARK  status: ('A' for Active; 'I' for Inactive)
REMARK    1  A    between atoms: _1  and  _3
REMARK    2  A    between atoms: _3  and  _4
REMARK    3  A    between atoms: _3  and  _6
REMARK    4  A    between atoms: _6  and  _7
REMARK    5  A    between atoms: _10  and  _12
REMARK    6  A    between atoms: _12  and  _13
REMARK    7  A    between atoms: _12  and  _15
REMARK    8  A    between atoms: _15  and  _16
REMARK    9  A    between atoms: _16  and  _17
REMARK   10  A    between atoms: _19  and  _21
REMARK   11  A    between atoms: _21  and  _22
REMARK   12  A    between atoms: _21  and  _24
REMARK   13  A    between atoms: _22  and  _23
REMARK   14  A    between atoms: _22  and  _28
REMARK   15  A    between atoms: _23  and  MG_421
REMARK   16  A    between atoms: _24  and  _25
REMARK   17  A    between atoms: _28  and  _30
REMARK   18  A    between atoms: _30  and  _31
REMARK   19  A    between atoms: _33  and  _35
REMARK   20  A    between atoms: _35  and  _36
REMARK   21  A    between atoms: _35  and  _38
REMARK   22  A    between atoms: _38  and  _39
REMARK   23  A    between atoms: _45  and  _47
REMARK   24  A    between atoms: _47  and  _48
REMARK   25  A    between atoms: _47  and  _50
REMARK   26  A    between atoms: _50  and  _51
REMARK   27  A    between atoms: _51  and  _52
REMARK   28  A    between atoms: _55  and  _57
REMARK   29  A    between atoms: _57  and  _58
REMARK   30  A    between atoms: _57  and  _60
REMARK   31  A    between atoms: _60  and  _61
REMARK   32  A    between atoms: _67  and  _69
REMARK   33  A    between atoms: _69  and  _70
REMARK   34  A    between atoms: _69  and  _72
REMARK   35  A    between atoms: _72  and  _73
REMARK   36  A    between atoms: _73  and  _74
REMARK   37  A    between atoms: _74  and  _75
REMARK   38  A    between atoms: _84  and  _86
REMARK   39  A    between atoms: _86  and  _87
REMARK   40  A    between atoms: _89  and  _91
REMARK   41  A    between atoms: _91  and  _92
REMARK   42  A    between atoms: _91  and  _94
REMARK   43  A    between atoms: _94  and  _95
REMARK   44  A    between atoms: _101  and  _103
REMARK   45  A    between atoms: _103  and  _104
REMARK   46  A    between atoms: _103  and  _106
REMARK   47  A    between atoms: _106  and  _107
REMARK   48  A    between atoms: _117  and  _119
REMARK   49  A    between atoms: _119  and  _120
REMARK   50  A    between atoms: _119  and  _122
REMARK   51  A    between atoms: _125  and  _127
REMARK   52  A    between atoms: _127  and  _128
REMARK   53  A    between atoms: _127  and  _130
REMARK   54  A    between atoms: _130  and  _131
REMARK   55  A    between atoms: _133  and  _135
REMARK   56  A    between atoms: _135  and  _136
REMARK   57  A    between atoms: _135  and  _138
REMARK   58  A    between atoms: _138  and  _139
REMARK   59  A    between atoms: _139  and  _140
REMARK   60  A    between atoms: _143  and  _145
REMARK   61  A    between atoms: _145  and  _146
REMARK   62  A    between atoms: _145  and  _148
REMARK   63  A    between atoms: _148  and  _149
REMARK   64  A    between atoms: _149  and  _150
REMARK   65  A    between atoms: _155  and  _157
REMARK   66  A    between atoms: _157  and  _158
REMARK   67  A    between atoms: _157  and  _160
REMARK   68  A    between atoms: _160  and  _161
REMARK   69  A    between atoms: _166  and  _167
REMARK   70  A    between atoms: _169  and  _171
REMARK   71  A    between atoms: _171  and  _172
REMARK   72  A    between atoms: _175  and  _177
REMARK   73  A    between atoms: _177  and  _178
REMARK   74  A    between atoms: _177  and  _180
REMARK   75  A    between atoms: _180  and  _181
REMARK   76  A    between atoms: _184  and  _186
REMARK   77  A    between atoms: _186  and  _187
REMARK   78  A    between atoms: _186  and  _189
REMARK   79  A    between atoms: _189  and  _190
REMARK   80  A    between atoms: _200  and  _202
REMARK   81  A    between atoms: _202  and  _203
REMARK   82  A    between atoms: _202  and  _205
REMARK   83  A    between atoms: _205  and  _206
REMARK   84  A    between atoms: _206  and  _207
REMARK   85  A    between atoms: _210  and  _212
REMARK   86  A    between atoms: _212  and  _213
REMARK   87  A    between atoms: _212  and  _215
REMARK   88  A    between atoms: _215  and  _216
REMARK   89  A    between atoms: _222  and  _224
REMARK   90  A    between atoms: _224  and  _225
REMARK   91  A    between atoms: _224  and  _227
REMARK   92  A    between atoms: _227  and  _228
REMARK   93  A    between atoms: _234  and  _236
REMARK   94  A    between atoms: _236  and  _237
REMARK   95  A    between atoms: _236  and  _239
REMARK   96  A    between atoms: _239  and  _240
REMARK   97  A    between atoms: _243  and  _245
REMARK   98  A    between atoms: _245  and  _246
REMARK   99  A    between atoms: _245  and  _248
REMARK  100  A    between atoms: _248  and  _249
REMARK  101  A    between atoms: _252  and  _253
REMARK  102  A    between atoms: _258  and  _260
REMARK  103  A    between atoms: _260  and  _261
REMARK  104  A    between atoms: _260  and  _263
REMARK  105  A    between atoms: _263  and  _264
REMARK  106  A    between atoms: _267  and  _269
REMARK  107  A    between atoms: _269  and  _270
REMARK  108  A    between atoms: _269  and  _272
REMARK  109  A    between atoms: _272  and  _273
REMARK  110  A    between atoms: _273  and  _274
REMARK  111  A    between atoms: _274  and  _275
REMARK  112  A    between atoms: _275  and  _276
REMARK  113  A    between atoms: _280  and  _282
REMARK  114  A    between atoms: _282  and  _283
REMARK  115  A    between atoms: _282  and  _285
REMARK  116  A    between atoms: _285  and  _286
REMARK  117  A    between atoms: _286  and  _287
REMARK  118  A    between atoms: _289  and  _291
REMARK  119  A    between atoms: _291  and  _292
REMARK  120  A    between atoms: _291  and  _294
REMARK  121  A    between atoms: _294  and  _295
REMARK  122  A    between atoms: _301  and  _303
REMARK  123  A    between atoms: _303  and  _304
REMARK  124  A    between atoms: _303  and  _306
REMARK  125  A    between atoms: _308  and  _310
REMARK  126  A    between atoms: _310  and  _311
REMARK  127  A    between atoms: _310  and  _313
REMARK  128  A    between atoms: _313  and  _314
REMARK  129  A    between atoms: _314  and  _315
REMARK  130  A    between atoms: _315  and  _316
REMARK  131  A    between atoms: _316  and  _317
REMARK  132  A    between atoms: _321  and  _323
REMARK  133  A    between atoms: _323  and  _324
REMARK  134  A    between atoms: _323  and  _326
REMARK  135  A    between atoms: _326  and  _327
REMARK  136  A    between atoms: _330  and  _332
REMARK  137  A    between atoms: _332  and  _333
REMARK  138  A    between atoms: _332  and  _335
REMARK  139  A    between atoms: _335  and  _336
REMARK  140  A    between atoms: _336  and  _337
REMARK  141  A    between atoms: _337  and  _338
REMARK  142  A    between atoms: _347  and  _349
REMARK  143  A    between atoms: _349  and  _350
REMARK  144  A    between atoms: _349  and  _352
REMARK  145  A    between atoms: _352  and  _353
REMARK  146  A    between atoms: _356  and  _358
REMARK  147  A    between atoms: _358  and  _359
REMARK  148  A    between atoms: _358  and  _361
REMARK  149  A    between atoms: _361  and  _362
REMARK  150  A    between atoms: _362  and  _363
REMARK  151  A    between atoms: _363  and  _364
REMARK  152  A    between atoms: _364  and  _365
REMARK  153  A    between atoms: _369  and  _371
REMARK  154  A    between atoms: _371  and  _372
REMARK  155  A    between atoms: _371  and  _374
REMARK  156  A    between atoms: _374  and  _375
REMARK  157  A    between atoms: _378  and  _380
REMARK  158  A    between atoms: _380  and  _381
REMARK  159  A    between atoms: _380  and  _383
REMARK  160  A    between atoms: _383  and  _384
REMARK  161  A    between atoms: _384  and  _385
REMARK  162  A    between atoms: _385  and  MG_421
REMARK  163  A    between atoms: _387  and  _389
REMARK  164  A    between atoms: _389  and  _390
REMARK  165  A    between atoms: _389  and  _392
REMARK  166  A    between atoms: _392  and  _393
REMARK  167  A    between atoms: _393  and  _394
REMARK  168  A    between atoms: _394  and  _395
REMARK  169  A    between atoms: _404  and  _406
REMARK  170  A    between atoms: _406  and  _407
REMARK  171  A    between atoms: _410  and  _412
REMARK  172  A    between atoms: _412  and  _413
REMARK  173  A    between atoms: _412  and  _415
REMARK  174  A    between atoms: _415  and  _416
REMARK                            x       y       z     vdW  Elec       q    Type
REMARK                         _______ _______ _______ _____ _____    ______ ____
ROOT
ATOM      1  O   HOH     1      11.000  36.229  34.204  0.00  0.00    +0.000 OA
ENDROOT
TORSDOF 0
REMARK  Name = ../refined-set-2016/1q91/1q91_pocket.pdb
REMARK  174 active torsions:
REMARK  status: ('A' for Active; 'I' for Inactive)
REMARK    1  A    between atoms: _1  and  _3
REMARK    2  A    between atoms: _3  and  _4
REMARK    3  A    between atoms: _3  and  _6
REMARK    4  A    between atoms: _6  and  _7
REMARK    5  A    between atoms: _10  and  _12
REMARK    6  A    between atoms: _12  and  _13
REMARK    7  A    between atoms: _12  and  _15
REMARK    8  A    between atoms: _15  and  _16
REMARK    9  A    between atoms: _16  and  _17
REMARK   10  A    between atoms: _19  and  _21
REMARK   11  A    between atoms: _21  and  _22
REMARK   12  A    between atoms: _21  and  _24
REMARK   13  A    between atoms: _22  and  _23
REMARK   14  A    between atoms: _22  and  _28
REMARK   15  A    between atoms: _23  and  MG_421
REMARK   16  A    between atoms: _24  and  _25
REMARK   17  A    between atoms: _28  and  _30
REMARK   18  A    between atoms: _30  and  _31
REMARK   19  A    between atoms: _33  and  _35
REMARK   20  A    between atoms: _35  and  _36
REMARK   21  A    between atoms: _35  and  _38
REMARK   22  A    between atoms: _38  and  _39
REMARK   23  A    between atoms: _45  and  _47
REMARK   24  A    between atoms: _47  and  _48
REMARK   25  A    between atoms: _47  and  _50
REMARK   26  A    between atoms: _50  and  _51
REMARK   27  A    between atoms: _51  and  _52
REMARK   28  A    between atoms: _55  and  _57
REMARK   29  A    between atoms: _57  and  _58
REMARK   30  A    between atoms: _57  and  _60
REMARK   31  A    between atoms: _60  and  _61
REMARK   32  A    between atoms: _67  and  _69
REMARK   33  A    between atoms: _69  and  _70
REMARK   34  A    between atoms: _69  and  _72
REMARK   35  A    between atoms: _72  and  _73
REMARK   36  A    between atoms: _73  and  _74
REMARK   37  A    between atoms: _74  and  _75
REMARK   38  A    between atoms: _84  and  _86
REMARK   39  A    between atoms: _86  and  _87
REMARK   40  A    between atoms: _89  and  _91
REMARK   41  A    between atoms: _91  and  _92
REMARK   42  A    between atoms: _91  and  _94
REMARK   43  A    between atoms: _94  and  _95
REMARK   44  A    between atoms: _101  and  _103
REMARK   45  A    between atoms: _103  and  _104
REMARK   46  A    between atoms: _103  and  _106
REMARK   47  A    between atoms: _106  and  _107
REMARK   48  A    between atoms: _117  and  _119
REMARK   49  A    between atoms: _119  and  _120
REMARK   50  A    between atoms: _119  and  _122
REMARK   51  A    between atoms: _125  and  _127
REMARK   52  A    between atoms: _127  and  _128
REMARK   53  A    between atoms: _127  and  _130
REMARK   54  A    between atoms: _130  and  _131
REMARK   55  A    between atoms: _133  and  _135
REMARK   56  A    between atoms: _135  and  _136
REMARK   57  A    between atoms: _135  and  _138
REMARK   58  A    between atoms: _138  and  _139
REMARK   59  A    between atoms: _139  and  _140
REMARK   60  A    between atoms: _143  and  _145
REMARK   61  A    between atoms: _145  and  _146
REMARK   62  A    between atoms: _145  and  _148
REMARK   63  A    between atoms: _148  and  _149
REMARK   64  A    between atoms: _149  and  _150
REMARK   65  A    between atoms: _155  and  _157
REMARK   66  A    between atoms: _157  and  _158
REMARK   67  A    between atoms: _157  and  _160
REMARK   68  A    between atoms: _160  and  _161
REMARK   69  A    between atoms: _166  and  _167
REMARK   70  A    between atoms: _169  and  _171
REMARK   71  A    between atoms: _171  and  _172
REMARK   72  A    between atoms: _175  and  _177
REMARK   73  A    between atoms: _177  and  _178
REMARK   74  A    between atoms: _177  and  _180
REMARK   75  A    between atoms: _180  and  _181
REMARK   76  A    between atoms: _184  and  _186
REMARK   77  A    between atoms: _186  and  _187
REMARK   78  A    between atoms: _186  and  _189
REMARK   79  A    between atoms: _189  and  _190
REMARK   80  A    between atoms: _200  and  _202
REMARK   81  A    between atoms: _202  and  _203
REMARK   82  A    between atoms: _202  and  _205
REMARK   83  A    between atoms: _205  and  _206
REMARK   84  A    between atoms: _206  and  _207
REMARK   85  A    between atoms: _210  and  _212
REMARK   86  A    between atoms: _212  and  _213
REMARK   87  A    between atoms: _212  and  _215
REMARK   88  A    between atoms: _215  and  _216
REMARK   89  A    between atoms: _222  and  _224
REMARK   90  A    between atoms: _224  and  _225
REMARK   91  A    between atoms: _224  and  _227
REMARK   92  A    between atoms: _227  and  _228
REMARK   93  A    between atoms: _234  and  _236
REMARK   94  A    between atoms: _236  and  _237
REMARK   95  A    between atoms: _236  and  _239
REMARK   96  A    between atoms: _239  and  _240
REMARK   97  A    between atoms: _243  and  _245
REMARK   98  A    between atoms: _245  and  _246
REMARK   99  A    between atoms: _245  and  _248
REMARK  100  A    between atoms: _248  and  _249
REMARK  101  A    between atoms: _252  and  _253
REMARK  102  A    between atoms: _258  and  _260
REMARK  103  A    between atoms: _260  and  _261
REMARK  104  A    between atoms: _260  and  _263
REMARK  105  A    between atoms: _263  and  _264
REMARK  106  A    between atoms: _267  and  _269
REMARK  107  A    between atoms: _269  and  _270
REMARK  108  A    between atoms: _269  and  _272
REMARK  109  A    between atoms: _272  and  _273
REMARK  110  A    between atoms: _273  and  _274
REMARK  111  A    between atoms: _274  and  _275
REMARK  112  A    between atoms: _275  and  _276
REMARK  113  A    between atoms: _280  and  _282
REMARK  114  A    between atoms: _282  and  _283
REMARK  115  A    between atoms: _282  and  _285
REMARK  116  A    between atoms: _285  and  _286
REMARK  117  A    between atoms: _286  and  _287
REMARK  118  A    between atoms: _289  and  _291
REMARK  119  A    between atoms: _291  and  _292
REMARK  120  A    between atoms: _291  and  _294
REMARK  121  A    between atoms: _294  and  _295
REMARK  122  A    between atoms: _301  and  _303
REMARK  123  A    between atoms: _303  and  _304
REMARK  124  A    between atoms: _303  and  _306
REMARK  125  A    between atoms: _308  and  _310
REMARK  126  A    between atoms: _310  and  _311
REMARK  127  A    between atoms: _310  and  _313
REMARK  128  A    between atoms: _313  and  _314
REMARK  129  A    between atoms: _314  and  _315
REMARK  130  A    between atoms: _315  and  _316
REMARK  131  A    between atoms: _316  and  _317
REMARK  132  A    between atoms: _321  and  _323
REMARK  133  A    between atoms: _323  and  _324
REMARK  134  A    between atoms: _323  and  _326
REMARK  135  A    between atoms: _326  and  _327
REMARK  136  A    between atoms: _330  and  _332
REMARK  137  A    between atoms: _332  and  _333
REMARK  138  A    between atoms: _332  and  _335
REMARK  139  A    between atoms: _335  and  _336
REMARK  140  A    between atoms: _336  and  _337
REMARK  141  A    between atoms: _337  and  _338
REMARK  142  A    between atoms: _347  and  _349
REMARK  143  A    between atoms: _349  and  _350
REMARK  144  A    between atoms: _349  and  _352
REMARK  145  A    between atoms: _352  and  _353
REMARK  146  A    between atoms: _356  and  _358
REMARK  147  A    between atoms: _358  and  _359
REMARK  148  A    between atoms: _358  and  _361
REMARK  149  A    between atoms: _361  and  _362
REMARK  150  A    between atoms: _362  and  _363
REMARK  151  A    between atoms: _363  and  _364
REMARK  152  A    between atoms: _364  and  _365
REMARK  153  A    between atoms: _369  and  _371
REMARK  154  A    between atoms: _371  and  _372
REMARK  155  A    between atoms: _371  and  _374
REMARK  156  A    between atoms: _374  and  _375
REMARK  157  A    between atoms: _378  and  _380
REMARK  158  A    between atoms: _380  and  _381
REMARK  159  A    between atoms: _380  and  _383
REMARK  160  A    between atoms: _383  and  _384
REMARK  161  A    between atoms: _384  and  _385
REMARK  162  A    between atoms: _385  and  MG_421
REMARK  163  A    between atoms: _387  and  _389
REMARK  164  A    between atoms: _389  and  _390
REMARK  165  A    between atoms: _389  and  _392
REMARK  166  A    between atoms: _392  and  _393
REMARK  167  A    between atoms: _393  and  _394
REMARK  168  A    between atoms: _394  and  _395
REMARK  169  A    between atoms: _404  and  _406
REMARK  170  A    between atoms: _406  and  _407
REMARK  171  A    between atoms: _410  and  _412
REMARK  172  A    between atoms: _412  and  _413
REMARK  173  A    between atoms: _412  and  _415
REMARK  174  A    between atoms: _415  and  _416
REMARK                            x       y       z     vdW  Elec       q    Type
REMARK                         _______ _______ _______ _____ _____    ______ ____
ROOT
ATOM      1  O   HOH     1      16.626  36.517  20.844  0.00  0.00    +0.000 OA
ENDROOT
TORSDOF 0
REMARK  Name = ../refined-set-2016/1q91/1q91_pocket.pdb
REMARK  174 active torsions:
REMARK  status: ('A' for Active; 'I' for Inactive)
REMARK    1  A    between atoms: _1  and  _3
REMARK    2  A    between atoms: _3  and  _4
REMARK    3  A    between atoms: _3  and  _6
REMARK    4  A    between atoms: _6  and  _7
REMARK    5  A    between atoms: _10  and  _12
REMARK    6  A    between atoms: _12  and  _13
REMARK    7  A    between atoms: _12  and  _15
REMARK    8  A    between atoms: _15  and  _16
REMARK    9  A    between atoms: _16  and  _17
REMARK   10  A    between atoms: _19  and  _21
REMARK   11  A    between atoms: _21  and  _22
REMARK   12  A    between atoms: _21  and  _24
REMARK   13  A    between atoms: _22  and  _23
REMARK   14  A    between atoms: _22  and  _28
REMARK   15  A    between atoms: _23  and  MG_421
REMARK   16  A    between atoms: _24  and  _25
REMARK   17  A    between atoms: _28  and  _30
REMARK   18  A    between atoms: _30  and  _31
REMARK   19  A    between atoms: _33  and  _35
REMARK   20  A    between atoms: _35  and  _36
REMARK   21  A    between atoms: _35  and  _38
REMARK   22  A    between atoms: _38  and  _39
REMARK   23  A    between atoms: _45  and  _47
REMARK   24  A    between atoms: _47  and  _48
REMARK   25  A    between atoms: _47  and  _50
REMARK   26  A    between atoms: _50  and  _51
REMARK   27  A    between atoms: _51  and  _52
REMARK   28  A    between atoms: _55  and  _57
REMARK   29  A    between atoms: _57  and  _58
REMARK   30  A    between atoms: _57  and  _60
REMARK   31  A    between atoms: _60  and  _61
REMARK   32  A    between atoms: _67  and  _69
REMARK   33  A    between atoms: _69  and  _70
REMARK   34  A    between atoms: _69  and  _72
REMARK   35  A    between atoms: _72  and  _73
REMARK   36  A    between atoms: _73  and  _74
REMARK   37  A    between atoms: _74  and  _75
REMARK   38  A    between atoms: _84  and  _86
REMARK   39  A    between atoms: _86  and  _87
REMARK   40  A    between atoms: _89  and  _91
REMARK   41  A    between atoms: _91  and  _92
REMARK   42  A    between atoms: _91  and  _94
REMARK   43  A    between atoms: _94  and  _95
REMARK   44  A    between atoms: _101  and  _103
REMARK   45  A    between atoms: _103  and  _104
REMARK   46  A    between atoms: _103  and  _106
REMARK   47  A    between atoms: _106  and  _107
REMARK   48  A    between atoms: _117  and  _119
REMARK   49  A    between atoms: _119  and  _120
REMARK   50  A    between atoms: _119  and  _122
REMARK   51  A    between atoms: _125  and  _127
REMARK   52  A    between atoms: _127  and  _128
REMARK   53  A    between atoms: _127  and  _130
REMARK   54  A    between atoms: _130  and  _131
REMARK   55  A    between atoms: _133  and  _135
REMARK   56  A    between atoms: _135  and  _136
REMARK   57  A    between atoms: _135  and  _138
REMARK   58  A    between atoms: _138  and  _139
REMARK   59  A    between atoms: _139  and  _140
REMARK   60  A    between atoms: _143  and  _145
REMARK   61  A    between atoms: _145  and  _146
REMARK   62  A    between atoms: _145  and  _148
REMARK   63  A    between atoms: _148  and  _149
REMARK   64  A    between atoms: _149  and  _150
REMARK   65  A    between atoms: _155  and  _157
REMARK   66  A    between atoms: _157  and  _158
REMARK   67  A    between atoms: _157  and  _160
REMARK   68  A    between atoms: _160  and  _161
REMARK   69  A    between atoms: _166  and  _167
REMARK   70  A    between atoms: _169  and  _171
REMARK   71  A    between atoms: _171  and  _172
REMARK   72  A    between atoms: _175  and  _177
REMARK   73  A    between atoms: _177  and  _178
REMARK   74  A    between atoms: _177  and  _180
REMARK   75  A    between atoms: _180  and  _181
REMARK   76  A    between atoms: _184  and  _186
REMARK   77  A    between atoms: _186  and  _187
REMARK   78  A    between atoms: _186  and  _189
REMARK   79  A    between atoms: _189  and  _190
REMARK   80  A    between atoms: _200  and  _202
REMARK   81  A    between atoms: _202  and  _203
REMARK   82  A    between atoms: _202  and  _205
REMARK   83  A    between atoms: _205  and  _206
REMARK   84  A    between atoms: _206  and  _207
REMARK   85  A    between atoms: _210  and  _212
REMARK   86  A    between atoms: _212  and  _213
REMARK   87  A    between atoms: _212  and  _215
REMARK   88  A    between atoms: _215  and  _216
REMARK   89  A    between atoms: _222  and  _224
REMARK   90  A    between atoms: _224  and  _225
REMARK   91  A    between atoms: _224  and  _227
REMARK   92  A    between atoms: _227  and  _228
REMARK   93  A    between atoms: _234  and  _236
REMARK   94  A    between atoms: _236  and  _237
REMARK   95  A    between atoms: _236  and  _239
REMARK   96  A    between atoms: _239  and  _240
REMARK   97  A    between atoms: _243  and  _245
REMARK   98  A    between atoms: _245  and  _246
REMARK   99  A    between atoms: _245  and  _248
REMARK  100  A    between atoms: _248  and  _249
REMARK  101  A    between atoms: _252  and  _253
REMARK  102  A    between atoms: _258  and  _260
REMARK  103  A    between atoms: _260  and  _261
REMARK  104  A    between atoms: _260  and  _263
REMARK  105  A    between atoms: _263  and  _264
REMARK  106  A    between atoms: _267  and  _269
REMARK  107  A    between atoms: _269  and  _270
REMARK  108  A    between atoms: _269  and  _272
REMARK  109  A    between atoms: _272  and  _273
REMARK  110  A    between atoms: _273  and  _274
REMARK  111  A    between atoms: _274  and  _275
REMARK  112  A    between atoms: _275  and  _276
REMARK  113  A    between atoms: _280  and  _282
REMARK  114  A    between atoms: _282  and  _283
REMARK  115  A    between atoms: _282  and  _285
REMARK  116  A    between atoms: _285  and  _286
REMARK  117  A    between atoms: _286  and  _287
REMARK  118  A    between atoms: _289  and  _291
REMARK  119  A    between atoms: _291  and  _292
REMARK  120  A    between atoms: _291  and  _294
REMARK  121  A    between atoms: _294  and  _295
REMARK  122  A    between atoms: _301  and  _303
REMARK  123  A    between atoms: _303  and  _304
REMARK  124  A    between atoms: _303  and  _306
REMARK  125  A    between atoms: _308  and  _310
REMARK  126  A    between atoms: _310  and  _311
REMARK  127  A    between atoms: _310  and  _313
REMARK  128  A    between atoms: _313  and  _314
REMARK  129  A    between atoms: _314  and  _315
REMARK  130  A    between atoms: _315  and  _316
REMARK  131  A    between atoms: _316  and  _317
REMARK  132  A    between atoms: _321  and  _323
REMARK  133  A    between atoms: _323  and  _324
REMARK  134  A    between atoms: _323  and  _326
REMARK  135  A    between atoms: _326  and  _327
REMARK  136  A    between atoms: _330  and  _332
REMARK  137  A    between atoms: _332  and  _333
REMARK  138  A    between atoms: _332  and  _335
REMARK  139  A    between atoms: _335  and  _336
REMARK  140  A    between atoms: _336  and  _337
REMARK  141  A    between atoms: _337  and  _338
REMARK  142  A    between atoms: _347  and  _349
REMARK  143  A    between atoms: _349  and  _350
REMARK  144  A    between atoms: _349  and  _352
REMARK  145  A    between atoms: _352  and  _353
REMARK  146  A    between atoms: _356  and  _358
REMARK  147  A    between atoms: _358  and  _359
REMARK  148  A    between atoms: _358  and  _361
REMARK  149  A    between atoms: _361  and  _362
REMARK  150  A    between atoms: _362  and  _363
REMARK  151  A    between atoms: _363  and  _364
REMARK  152  A    between atoms: _364  and  _365
REMARK  153  A    between atoms: _369  and  _371
REMARK  154  A    between atoms: _371  and  _372
REMARK  155  A    between atoms: _371  and  _374
REMARK  156  A    between atoms: _374  and  _375
REMARK  157  A    between atoms: _378  and  _380
REMARK  158  A    between atoms: _380  and  _381
REMARK  159  A    between atoms: _380  and  _383
REMARK  160  A    between atoms: _383  and  _384
REMARK  161  A    between atoms: _384  and  _385
REMARK  162  A    between atoms: _385  and  MG_421
REMARK  163  A    between atoms: _387  and  _389
REMARK  164  A    between atoms: _389  and  _390
REMARK  165  A    between atoms: _389  and  _392
REMARK  166  A    between atoms: _392  and  _393
REMARK  167  A    between atoms: _393  and  _394
REMARK  168  A    between atoms: _394  and  _395
REMARK  169  A    between atoms: _404  and  _406
REMARK  170  A    between atoms: _406  and  _407
REMARK  171  A    between atoms: _410  and  _412
REMARK  172  A    between atoms: _412  and  _413
REMARK  173  A    between atoms: _412  and  _415
REMARK  174  A    between atoms: _415  and  _416
REMARK                            x       y       z     vdW  Elec       q    Type
REMARK                         _______ _______ _______ _____ _____    ______ ____
ROOT
ATOM      1  O   HOH     1      16.797  37.150  30.339  0.00  0.00    +0.000 OA
ENDROOT
TORSDOF 0
REMARK  Name = ../refined-set-2016/1q91/1q91_pocket.pdb
REMARK  174 active torsions:
REMARK  status: ('A' for Active; 'I' for Inactive)
REMARK    1  A    between atoms: _1  and  _3
REMARK    2  A    between atoms: _3  and  _4
REMARK    3  A    between atoms: _3  and  _6
REMARK    4  A    between atoms: _6  and  _7
REMARK    5  A    between atoms: _10  and  _12
REMARK    6  A    between atoms: _12  and  _13
REMARK    7  A    between atoms: _12  and  _15
REMARK    8  A    between atoms: _15  and  _16
REMARK    9  A    between atoms: _16  and  _17
REMARK   10  A    between atoms: _19  and  _21
REMARK   11  A    between atoms: _21  and  _22
REMARK   12  A    between atoms: _21  and  _24
REMARK   13  A    between atoms: _22  and  _23
REMARK   14  A    between atoms: _22  and  _28
REMARK   15  A    between atoms: _23  and  MG_421
REMARK   16  A    between atoms: _24  and  _25
REMARK   17  A    between atoms: _28  and  _30
REMARK   18  A    between atoms: _30  and  _31
REMARK   19  A    between atoms: _33  and  _35
REMARK   20  A    between atoms: _35  and  _36
REMARK   21  A    between atoms: _35  and  _38
REMARK   22  A    between atoms: _38  and  _39
REMARK   23  A    between atoms: _45  and  _47
REMARK   24  A    between atoms: _47  and  _48
REMARK   25  A    between atoms: _47  and  _50
REMARK   26  A    between atoms: _50  and  _51
REMARK   27  A    between atoms: _51  and  _52
REMARK   28  A    between atoms: _55  and  _57
REMARK   29  A    between atoms: _57  and  _58
REMARK   30  A    between atoms: _57  and  _60
REMARK   31  A    between atoms: _60  and  _61
REMARK   32  A    between atoms: _67  and  _69
REMARK   33  A    between atoms: _69  and  _70
REMARK   34  A    between atoms: _69  and  _72
REMARK   35  A    between atoms: _72  and  _73
REMARK   36  A    between atoms: _73  and  _74
REMARK   37  A    between atoms: _74  and  _75
REMARK   38  A    between atoms: _84  and  _86
REMARK   39  A    between atoms: _86  and  _87
REMARK   40  A    between atoms: _89  and  _91
REMARK   41  A    between atoms: _91  and  _92
REMARK   42  A    between atoms: _91  and  _94
REMARK   43  A    between atoms: _94  and  _95
REMARK   44  A    between atoms: _101  and  _103
REMARK   45  A    between atoms: _103  and  _104
REMARK   46  A    between atoms: _103  and  _106
REMARK   47  A    between atoms: _106  and  _107
REMARK   48  A    between atoms: _117  and  _119
REMARK   49  A    between atoms: _119  and  _120
REMARK   50  A    between atoms: _119  and  _122
REMARK   51  A    between atoms: _125  and  _127
REMARK   52  A    between atoms: _127  and  _128
REMARK   53  A    between atoms: _127  and  _130
REMARK   54  A    between atoms: _130  and  _131
REMARK   55  A    between atoms: _133  and  _135
REMARK   56  A    between atoms: _135  and  _136
REMARK   57  A    between atoms: _135  and  _138
REMARK   58  A    between atoms: _138  and  _139
REMARK   59  A    between atoms: _139  and  _140
REMARK   60  A    between atoms: _143  and  _145
REMARK   61  A    between atoms: _145  and  _146
REMARK   62  A    between atoms: _145  and  _148
REMARK   63  A    between atoms: _148  and  _149
REMARK   64  A    between atoms: _149  and  _150
REMARK   65  A    between atoms: _155  and  _157
REMARK   66  A    between atoms: _157  and  _158
REMARK   67  A    between atoms: _157  and  _160
REMARK   68  A    between atoms: _160  and  _161
REMARK   69  A    between atoms: _166  and  _167
REMARK   70  A    between atoms: _169  and  _171
REMARK   71  A    between atoms: _171  and  _172
REMARK   72  A    between atoms: _175  and  _177
REMARK   73  A    between atoms: _177  and  _178
REMARK   74  A    between atoms: _177  and  _180
REMARK   75  A    between atoms: _180  and  _181
REMARK   76  A    between atoms: _184  and  _186
REMARK   77  A    between atoms: _186  and  _187
REMARK   78  A    between atoms: _186  and  _189
REMARK   79  A    between atoms: _189  and  _190
REMARK   80  A    between atoms: _200  and  _202
REMARK   81  A    between atoms: _202  and  _203
REMARK   82  A    between atoms: _202  and  _205
REMARK   83  A    between atoms: _205  and  _206
REMARK   84  A    between atoms: _206  and  _207
REMARK   85  A    between atoms: _210  and  _212
REMARK   86  A    between atoms: _212  and  _213
REMARK   87  A    between atoms: _212  and  _215
REMARK   88  A    between atoms: _215  and  _216
REMARK   89  A    between atoms: _222  and  _224
REMARK   90  A    between atoms: _224  and  _225
REMARK   91  A    between atoms: _224  and  _227
REMARK   92  A    between atoms: _227  and  _228
REMARK   93  A    between atoms: _234  and  _236
REMARK   94  A    between atoms: _236  and  _237
REMARK   95  A    between atoms: _236  and  _239
REMARK   96  A    between atoms: _239  and  _240
REMARK   97  A    between atoms: _243  and  _245
REMARK   98  A    between atoms: _245  and  _246
REMARK   99  A    between atoms: _245  and  _248
REMARK  100  A    between atoms: _248  and  _249
REMARK  101  A    between atoms: _252  and  _253
REMARK  102  A    between atoms: _258  and  _260
REMARK  103  A    between atoms: _260  and  _261
REMARK  104  A    between atoms: _260  and  _263
REMARK  105  A    between atoms: _263  and  _264
REMARK  106  A    between atoms: _267  and  _269
REMARK  107  A    between atoms: _269  and  _270
REMARK  108  A    between atoms: _269  and  _272
REMARK  109  A    between atoms: _272  and  _273
REMARK  110  A    between atoms: _273  and  _274
REMARK  111  A    between atoms: _274  and  _275
REMARK  112  A    between atoms: _275  and  _276
REMARK  113  A    between atoms: _280  and  _282
REMARK  114  A    between atoms: _282  and  _283
REMARK  115  A    between atoms: _282  and  _285
REMARK  116  A    between atoms: _285  and  _286
REMARK  117  A    between atoms: _286  and  _287
REMARK  118  A    between atoms: _289  and  _291
REMARK  119  A    between atoms: _291  and  _292
REMARK  120  A    between atoms: _291  and  _294
REMARK  121  A    between atoms: _294  and  _295
REMARK  122  A    between atoms: _301  and  _303
REMARK  123  A    between atoms: _303  and  _304
REMARK  124  A    between atoms: _303  and  _306
REMARK  125  A    between atoms: _308  and  _310
REMARK  126  A    between atoms: _310  and  _311
REMARK  127  A    between atoms: _310  and  _313
REMARK  128  A    between atoms: _313  and  _314
REMARK  129  A    between atoms: _314  and  _315
REMARK  130  A    between atoms: _315  and  _316
REMARK  131  A    between atoms: _316  and  _317
REMARK  132  A    between atoms: _321  and  _323
REMARK  133  A    between atoms: _323  and  _324
REMARK  134  A    between atoms: _323  and  _326
REMARK  135  A    between atoms: _326  and  _327
REMARK  136  A    between atoms: _330  and  _332
REMARK  137  A    between atoms: _332  and  _333
REMARK  138  A    between atoms: _332  and  _335
REMARK  139  A    between atoms: _335  and  _336
REMARK  140  A    between atoms: _336  and  _337
REMARK  141  A    between atoms: _337  and  _338
REMARK  142  A    between atoms: _347  and  _349
REMARK  143  A    between atoms: _349  and  _350
REMARK  144  A    between atoms: _349  and  _352
REMARK  145  A    between atoms: _352  and  _353
REMARK  146  A    between atoms: _356  and  _358
REMARK  147  A    between atoms: _358  and  _359
REMARK  148  A    between atoms: _358  and  _361
REMARK  149  A    between atoms: _361  and  _362
REMARK  150  A    between atoms: _362  and  _363
REMARK  151  A    between atoms: _363  and  _364
REMARK  152  A    between atoms: _364  and  _365
REMARK  153  A    between atoms: _369  and  _371
REMARK  154  A    between atoms: _371  and  _372
REMARK  155  A    between atoms: _371  and  _374
REMARK  156  A    between atoms: _374  and  _375
REMARK  157  A    between atoms: _378  and  _380
REMARK  158  A    between atoms: _380  and  _381
REMARK  159  A    between atoms: _380  and  _383
REMARK  160  A    between atoms: _383  and  _384
REMARK  161  A    between atoms: _384  and  _385
REMARK  162  A    between atoms: _385  and  MG_421
REMARK  163  A    between atoms: _387  and  _389
REMARK  164  A    between atoms: _389  and  _390
REMARK  165  A    between atoms: _389  and  _392
REMARK  166  A    between atoms: _392  and  _393
REMARK  167  A    between atoms: _393  and  _394
REMARK  168  A    between atoms: _394  and  _395
REMARK  169  A    between atoms: _404  and  _406
REMARK  170  A    between atoms: _406  and  _407
REMARK  171  A    between atoms: _410  and  _412
REMARK  172  A    between atoms: _412  and  _413
REMARK  173  A    between atoms: _412  and  _415
REMARK  174  A    between atoms: _415  and  _416
REMARK                            x       y       z     vdW  Elec       q    Type
REMARK                         _______ _______ _______ _____ _____    ______ ____
ROOT
ATOM      1  O   HOH     1       9.858  38.679  36.097  0.00  0.00    +0.000 OA
ENDROOT
TORSDOF 0
REMARK  Name = ../refined-set-2016/1q91/1q91_pocket.pdb
REMARK  174 active torsions:
REMARK  status: ('A' for Active; 'I' for Inactive)
REMARK    1  A    between atoms: _1  and  _3
REMARK    2  A    between atoms: _3  and  _4
REMARK    3  A    between atoms: _3  and  _6
REMARK    4  A    between atoms: _6  and  _7
REMARK    5  A    between atoms: _10  and  _12
REMARK    6  A    between atoms: _12  and  _13
REMARK    7  A    between atoms: _12  and  _15
REMARK    8  A    between atoms: _15  and  _16
REMARK    9  A    between atoms: _16  and  _17
REMARK   10  A    between atoms: _19  and  _21
REMARK   11  A    between atoms: _21  and  _22
REMARK   12  A    between atoms: _21  and  _24
REMARK   13  A    between atoms: _22  and  _23
REMARK   14  A    between atoms: _22  and  _28
REMARK   15  A    between atoms: _23  and  MG_421
REMARK   16  A    between atoms: _24  and  _25
REMARK   17  A    between atoms: _28  and  _30
REMARK   18  A    between atoms: _30  and  _31
REMARK   19  A    between atoms: _33  and  _35
REMARK   20  A    between atoms: _35  and  _36
REMARK   21  A    between atoms: _35  and  _38
REMARK   22  A    between atoms: _38  and  _39
REMARK   23  A    between atoms: _45  and  _47
REMARK   24  A    between atoms: _47  and  _48
REMARK   25  A    between atoms: _47  and  _50
REMARK   26  A    between atoms: _50  and  _51
REMARK   27  A    between atoms: _51  and  _52
REMARK   28  A    between atoms: _55  and  _57
REMARK   29  A    between atoms: _57  and  _58
REMARK   30  A    between atoms: _57  and  _60
REMARK   31  A    between atoms: _60  and  _61
REMARK   32  A    between atoms: _67  and  _69
REMARK   33  A    between atoms: _69  and  _70
REMARK   34  A    between atoms: _69  and  _72
REMARK   35  A    between atoms: _72  and  _73
REMARK   36  A    between atoms: _73  and  _74
REMARK   37  A    between atoms: _74  and  _75
REMARK   38  A    between atoms: _84  and  _86
REMARK   39  A    between atoms: _86  and  _87
REMARK   40  A    between atoms: _89  and  _91
REMARK   41  A    between atoms: _91  and  _92
REMARK   42  A    between atoms: _91  and  _94
REMARK   43  A    between atoms: _94  and  _95
REMARK   44  A    between atoms: _101  and  _103
REMARK   45  A    between atoms: _103  and  _104
REMARK   46  A    between atoms: _103  and  _106
REMARK   47  A    between atoms: _106  and  _107
REMARK   48  A    between atoms: _117  and  _119
REMARK   49  A    between atoms: _119  and  _120
REMARK   50  A    between atoms: _119  and  _122
REMARK   51  A    between atoms: _125  and  _127
REMARK   52  A    between atoms: _127  and  _128
REMARK   53  A    between atoms: _127  and  _130
REMARK   54  A    between atoms: _130  and  _131
REMARK   55  A    between atoms: _133  and  _135
REMARK   56  A    between atoms: _135  and  _136
REMARK   57  A    between atoms: _135  and  _138
REMARK   58  A    between atoms: _138  and  _139
REMARK   59  A    between atoms: _139  and  _140
REMARK   60  A    between atoms: _143  and  _145
REMARK   61  A    between atoms: _145  and  _146
REMARK   62  A    between atoms: _145  and  _148
REMARK   63  A    between atoms: _148  and  _149
REMARK   64  A    between atoms: _149  and  _150
REMARK   65  A    between atoms: _155  and  _157
REMARK   66  A    between atoms: _157  and  _158
REMARK   67  A    between atoms: _157  and  _160
REMARK   68  A    between atoms: _160  and  _161
REMARK   69  A    between atoms: _166  and  _167
REMARK   70  A    between atoms: _169  and  _171
REMARK   71  A    between atoms: _171  and  _172
REMARK   72  A    between atoms: _175  and  _177
REMARK   73  A    between atoms: _177  and  _178
REMARK   74  A    between atoms: _177  and  _180
REMARK   75  A    between atoms: _180  and  _181
REMARK   76  A    between atoms: _184  and  _186
REMARK   77  A    between atoms: _186  and  _187
REMARK   78  A    between atoms: _186  and  _189
REMARK   79  A    between atoms: _189  and  _190
REMARK   80  A    between atoms: _200  and  _202
REMARK   81  A    between atoms: _202  and  _203
REMARK   82  A    between atoms: _202  and  _205
REMARK   83  A    between atoms: _205  and  _206
REMARK   84  A    between atoms: _206  and  _207
REMARK   85  A    between atoms: _210  and  _212
REMARK   86  A    between atoms: _212  and  _213
REMARK   87  A    between atoms: _212  and  _215
REMARK   88  A    between atoms: _215  and  _216
REMARK   89  A    between atoms: _222  and  _224
REMARK   90  A    between atoms: _224  and  _225
REMARK   91  A    between atoms: _224  and  _227
REMARK   92  A    between atoms: _227  and  _228
REMARK   93  A    between atoms: _234  and  _236
REMARK   94  A    between atoms: _236  and  _237
REMARK   95  A    between atoms: _236  and  _239
REMARK   96  A    between atoms: _239  and  _240
REMARK   97  A    between atoms: _243  and  _245
REMARK   98  A    between atoms: _245  and  _246
REMARK   99  A    between atoms: _245  and  _248
REMARK  100  A    between atoms: _248  and  _249
REMARK  101  A    between atoms: _252  and  _253
REMARK  102  A    between atoms: _258  and  _260
REMARK  103  A    between atoms: _260  and  _261
REMARK  104  A    between atoms: _260  and  _263
REMARK  105  A    between atoms: _263  and  _264
REMARK  106  A    between atoms: _267  and  _269
REMARK  107  A    between atoms: _269  and  _270
REMARK  108  A    between atoms: _269  and  _272
REMARK  109  A    between atoms: _272  and  _273
REMARK  110  A    between atoms: _273  and  _274
REMARK  111  A    between atoms: _274  and  _275
REMARK  112  A    between atoms: _275  and  _276
REMARK  113  A    between atoms: _280  and  _282
REMARK  114  A    between atoms: _282  and  _283
REMARK  115  A    between atoms: _282  and  _285
REMARK  116  A    between atoms: _285  and  _286
REMARK  117  A    between atoms: _286  and  _287
REMARK  118  A    between atoms: _289  and  _291
REMARK  119  A    between atoms: _291  and  _292
REMARK  120  A    between atoms: _291  and  _294
REMARK  121  A    between atoms: _294  and  _295
REMARK  122  A    between atoms: _301  and  _303
REMARK  123  A    between atoms: _303  and  _304
REMARK  124  A    between atoms: _303  and  _306
REMARK  125  A    between atoms: _308  and  _310
REMARK  126  A    between atoms: _310  and  _311
REMARK  127  A    between atoms: _310  and  _313
REMARK  128  A    between atoms: _313  and  _314
REMARK  129  A    between atoms: _314  and  _315
REMARK  130  A    between atoms: _315  and  _316
REMARK  131  A    between atoms: _316  and  _317
REMARK  132  A    between atoms: _321  and  _323
REMARK  133  A    between atoms: _323  and  _324
REMARK  134  A    between atoms: _323  and  _326
REMARK  135  A    between atoms: _326  and  _327
REMARK  136  A    between atoms: _330  and  _332
REMARK  137  A    between atoms: _332  and  _333
REMARK  138  A    between atoms: _332  and  _335
REMARK  139  A    between atoms: _335  and  _336
REMARK  140  A    between atoms: _336  and  _337
REMARK  141  A    between atoms: _337  and  _338
REMARK  142  A    between atoms: _347  and  _349
REMARK  143  A    between atoms: _349  and  _350
REMARK  144  A    between atoms: _349  and  _352
REMARK  145  A    between atoms: _352  and  _353
REMARK  146  A    between atoms: _356  and  _358
REMARK  147  A    between atoms: _358  and  _359
REMARK  148  A    between atoms: _358  and  _361
REMARK  149  A    between atoms: _361  and  _362
REMARK  150  A    between atoms: _362  and  _363
REMARK  151  A    between atoms: _363  and  _364
REMARK  152  A    between atoms: _364  and  _365
REMARK  153  A    between atoms: _369  and  _371
REMARK  154  A    between atoms: _371  and  _372
REMARK  155  A    between atoms: _371  and  _374
REMARK  156  A    between atoms: _374  and  _375
REMARK  157  A    between atoms: _378  and  _380
REMARK  158  A    between atoms: _380  and  _381
REMARK  159  A    between atoms: _380  and  _383
REMARK  160  A    between atoms: _383  and  _384
REMARK  161  A    between atoms: _384  and  _385
REMARK  162  A    between atoms: _385  and  MG_421
REMARK  163  A    between atoms: _387  and  _389
REMARK  164  A    between atoms: _389  and  _390
REMARK  165  A    between atoms: _389  and  _392
REMARK  166  A    between atoms: _392  and  _393
REMARK  167  A    between atoms: _393  and  _394
REMARK  168  A    between atoms: _394  and  _395
REMARK  169  A    between atoms: _404  and  _406
REMARK  170  A    between atoms: _406  and  _407
REMARK  171  A    between atoms: _410  and  _412
REMARK  172  A    between atoms: _412  and  _413
REMARK  173  A    between atoms: _412  and  _415
REMARK  174  A    between atoms: _415  and  _416
REMARK                            x       y       z     vdW  Elec       q    Type
REMARK                         _______ _______ _______ _____ _____    ______ ____
ROOT
ATOM      1  O   HOH     1       8.114  31.191  24.288  0.00  0.00    +0.000 OA
ENDROOT
TORSDOF 0
REMARK  Name = ../refined-set-2016/1q91/1q91_pocket.pdb
REMARK  174 active torsions:
REMARK  status: ('A' for Active; 'I' for Inactive)
REMARK    1  A    between atoms: _1  and  _3
REMARK    2  A    between atoms: _3  and  _4
REMARK    3  A    between atoms: _3  and  _6
REMARK    4  A    between atoms: _6  and  _7
REMARK    5  A    between atoms: _10  and  _12
REMARK    6  A    between atoms: _12  and  _13
REMARK    7  A    between atoms: _12  and  _15
REMARK    8  A    between atoms: _15  and  _16
REMARK    9  A    between atoms: _16  and  _17
REMARK   10  A    between atoms: _19  and  _21
REMARK   11  A    between atoms: _21  and  _22
REMARK   12  A    between atoms: _21  and  _24
REMARK   13  A    between atoms: _22  and  _23
REMARK   14  A    between atoms: _22  and  _28
REMARK   15  A    between atoms: _23  and  MG_421
REMARK   16  A    between atoms: _24  and  _25
REMARK   17  A    between atoms: _28  and  _30
REMARK   18  A    between atoms: _30  and  _31
REMARK   19  A    between atoms: _33  and  _35
REMARK   20  A    between atoms: _35  and  _36
REMARK   21  A    between atoms: _35  and  _38
REMARK   22  A    between atoms: _38  and  _39
REMARK   23  A    between atoms: _45  and  _47
REMARK   24  A    between atoms: _47  and  _48
REMARK   25  A    between atoms: _47  and  _50
REMARK   26  A    between atoms: _50  and  _51
REMARK   27  A    between atoms: _51  and  _52
REMARK   28  A    between atoms: _55  and  _57
REMARK   29  A    between atoms: _57  and  _58
REMARK   30  A    between atoms: _57  and  _60
REMARK   31  A    between atoms: _60  and  _61
REMARK   32  A    between atoms: _67  and  _69
REMARK   33  A    between atoms: _69  and  _70
REMARK   34  A    between atoms: _69  and  _72
REMARK   35  A    between atoms: _72  and  _73
REMARK   36  A    between atoms: _73  and  _74
REMARK   37  A    between atoms: _74  and  _75
REMARK   38  A    between atoms: _84  and  _86
REMARK   39  A    between atoms: _86  and  _87
REMARK   40  A    between atoms: _89  and  _91
REMARK   41  A    between atoms: _91  and  _92
REMARK   42  A    between atoms: _91  and  _94
REMARK   43  A    between atoms: _94  and  _95
REMARK   44  A    between atoms: _101  and  _103
REMARK   45  A    between atoms: _103  and  _104
REMARK   46  A    between atoms: _103  and  _106
REMARK   47  A    between atoms: _106  and  _107
REMARK   48  A    between atoms: _117  and  _119
REMARK   49  A    between atoms: _119  and  _120
REMARK   50  A    between atoms: _119  and  _122
REMARK   51  A    between atoms: _125  and  _127
REMARK   52  A    between atoms: _127  and  _128
REMARK   53  A    between atoms: _127  and  _130
REMARK   54  A    between atoms: _130  and  _131
REMARK   55  A    between atoms: _133  and  _135
REMARK   56  A    between atoms: _135  and  _136
REMARK   57  A    between atoms: _135  and  _138
REMARK   58  A    between atoms: _138  and  _139
REMARK   59  A    between atoms: _139  and  _140
REMARK   60  A    between atoms: _143  and  _145
REMARK   61  A    between atoms: _145  and  _146
REMARK   62  A    between atoms: _145  and  _148
REMARK   63  A    between atoms: _148  and  _149
REMARK   64  A    between atoms: _149  and  _150
REMARK   65  A    between atoms: _155  and  _157
REMARK   66  A    between atoms: _157  and  _158
REMARK   67  A    between atoms: _157  and  _160
REMARK   68  A    between atoms: _160  and  _161
REMARK   69  A    between atoms: _166  and  _167
REMARK   70  A    between atoms: _169  and  _171
REMARK   71  A    between atoms: _171  and  _172
REMARK   72  A    between atoms: _175  and  _177
REMARK   73  A    between atoms: _177  and  _178
REMARK   74  A    between atoms: _177  and  _180
REMARK   75  A    between atoms: _180  and  _181
REMARK   76  A    between atoms: _184  and  _186
REMARK   77  A    between atoms: _186  and  _187
REMARK   78  A    between atoms: _186  and  _189
REMARK   79  A    between atoms: _189  and  _190
REMARK   80  A    between atoms: _200  and  _202
REMARK   81  A    between atoms: _202  and  _203
REMARK   82  A    between atoms: _202  and  _205
REMARK   83  A    between atoms: _205  and  _206
REMARK   84  A    between atoms: _206  and  _207
REMARK   85  A    between atoms: _210  and  _212
REMARK   86  A    between atoms: _212  and  _213
REMARK   87  A    between atoms: _212  and  _215
REMARK   88  A    between atoms: _215  and  _216
REMARK   89  A    between atoms: _222  and  _224
REMARK   90  A    between atoms: _224  and  _225
REMARK   91  A    between atoms: _224  and  _227
REMARK   92  A    between atoms: _227  and  _228
REMARK   93  A    between atoms: _234  and  _236
REMARK   94  A    between atoms: _236  and  _237
REMARK   95  A    between atoms: _236  and  _239
REMARK   96  A    between atoms: _239  and  _240
REMARK   97  A    between atoms: _243  and  _245
REMARK   98  A    between atoms: _245  and  _246
REMARK   99  A    between atoms: _245  and  _248
REMARK  100  A    between atoms: _248  and  _249
REMARK  101  A    between atoms: _252  and  _253
REMARK  102  A    between atoms: _258  and  _260
REMARK  103  A    between atoms: _260  and  _261
REMARK  104  A    between atoms: _260  and  _263
REMARK  105  A    between atoms: _263  and  _264
REMARK  106  A    between atoms: _267  and  _269
REMARK  107  A    between atoms: _269  and  _270
REMARK  108  A    between atoms: _269  and  _272
REMARK  109  A    between atoms: _272  and  _273
REMARK  110  A    between atoms: _273  and  _274
REMARK  111  A    between atoms: _274  and  _275
REMARK  112  A    between atoms: _275  and  _276
REMARK  113  A    between atoms: _280  and  _282
REMARK  114  A    between atoms: _282  and  _283
REMARK  115  A    between atoms: _282  and  _285
REMARK  116  A    between atoms: _285  and  _286
REMARK  117  A    between atoms: _286  and  _287
REMARK  118  A    between atoms: _289  and  _291
REMARK  119  A    between atoms: _291  and  _292
REMARK  120  A    between atoms: _291  and  _294
REMARK  121  A    between atoms: _294  and  _295
REMARK  122  A    between atoms: _301  and  _303
REMARK  123  A    between atoms: _303  and  _304
REMARK  124  A    between atoms: _303  and  _306
REMARK  125  A    between atoms: _308  and  _310
REMARK  126  A    between atoms: _310  and  _311
REMARK  127  A    between atoms: _310  and  _313
REMARK  128  A    between atoms: _313  and  _314
REMARK  129  A    between atoms: _314  and  _315
REMARK  130  A    between atoms: _315  and  _316
REMARK  131  A    between atoms: _316  and  _317
REMARK  132  A    between atoms: _321  and  _323
REMARK  133  A    between atoms: _323  and  _324
REMARK  134  A    between atoms: _323  and  _326
REMARK  135  A    between atoms: _326  and  _327
REMARK  136  A    between atoms: _330  and  _332
REMARK  137  A    between atoms: _332  and  _333
REMARK  138  A    between atoms: _332  and  _335
REMARK  139  A    between atoms: _335  and  _336
REMARK  140  A    between atoms: _336  and  _337
REMARK  141  A    between atoms: _337  and  _338
REMARK  142  A    between atoms: _347  and  _349
REMARK  143  A    between atoms: _349  and  _350
REMARK  144  A    between atoms: _349  and  _352
REMARK  145  A    between atoms: _352  and  _353
REMARK  146  A    between atoms: _356  and  _358
REMARK  147  A    between atoms: _358  and  _359
REMARK  148  A    between atoms: _358  and  _361
REMARK  149  A    between atoms: _361  and  _362
REMARK  150  A    between atoms: _362  and  _363
REMARK  151  A    between atoms: _363  and  _364
REMARK  152  A    between atoms: _364  and  _365
REMARK  153  A    between atoms: _369  and  _371
REMARK  154  A    between atoms: _371  and  _372
REMARK  155  A    between atoms: _371  and  _374
REMARK  156  A    between atoms: _374  and  _375
REMARK  157  A    between atoms: _378  and  _380
REMARK  158  A    between atoms: _380  and  _381
REMARK  159  A    between atoms: _380  and  _383
REMARK  160  A    between atoms: _383  and  _384
REMARK  161  A    between atoms: _384  and  _385
REMARK  162  A    between atoms: _385  and  MG_421
REMARK  163  A    between atoms: _387  and  _389
REMARK  164  A    between atoms: _389  and  _390
REMARK  165  A    between atoms: _389  and  _392
REMARK  166  A    between atoms: _392  and  _393
REMARK  167  A    between atoms: _393  and  _394
REMARK  168  A    between atoms: _394  and  _395
REMARK  169  A    between atoms: _404  and  _406
REMARK  170  A    between atoms: _406  and  _407
REMARK  171  A    between atoms: _410  and  _412
REMARK  172  A    between atoms: _412  and  _413
REMARK  173  A    between atoms: _412  and  _415
REMARK  174  A    between atoms: _415  and  _416
REMARK                            x       y       z     vdW  Elec       q    Type
REMARK                         _______ _______ _______ _____ _____    ______ ____
ROOT
ATOM      1  O   HOH     1       5.693  31.468  25.554  0.00  0.00    +0.000 OA
ENDROOT
TORSDOF 0
REMARK  Name = ../refined-set-2016/1q91/1q91_pocket.pdb
REMARK  174 active torsions:
REMARK  status: ('A' for Active; 'I' for Inactive)
REMARK    1  A    between atoms: _1  and  _3
REMARK    2  A    between atoms: _3  and  _4
REMARK    3  A    between atoms: _3  and  _6
REMARK    4  A    between atoms: _6  and  _7
REMARK    5  A    between atoms: _10  and  _12
REMARK    6  A    between atoms: _12  and  _13
REMARK    7  A    between atoms: _12  and  _15
REMARK    8  A    between atoms: _15  and  _16
REMARK    9  A    between atoms: _16  and  _17
REMARK   10  A    between atoms: _19  and  _21
REMARK   11  A    between atoms: _21  and  _22
REMARK   12  A    between atoms: _21  and  _24
REMARK   13  A    between atoms: _22  and  _23
REMARK   14  A    between atoms: _22  and  _28
REMARK   15  A    between atoms: _23  and  MG_421
REMARK   16  A    between atoms: _24  and  _25
REMARK   17  A    between atoms: _28  and  _30
REMARK   18  A    between atoms: _30  and  _31
REMARK   19  A    between atoms: _33  and  _35
REMARK   20  A    between atoms: _35  and  _36
REMARK   21  A    between atoms: _35  and  _38
REMARK   22  A    between atoms: _38  and  _39
REMARK   23  A    between atoms: _45  and  _47
REMARK   24  A    between atoms: _47  and  _48
REMARK   25  A    between atoms: _47  and  _50
REMARK   26  A    between atoms: _50  and  _51
REMARK   27  A    between atoms: _51  and  _52
REMARK   28  A    between atoms: _55  and  _57
REMARK   29  A    between atoms: _57  and  _58
REMARK   30  A    between atoms: _57  and  _60
REMARK   31  A    between atoms: _60  and  _61
REMARK   32  A    between atoms: _67  and  _69
REMARK   33  A    between atoms: _69  and  _70
REMARK   34  A    between atoms: _69  and  _72
REMARK   35  A    between atoms: _72  and  _73
REMARK   36  A    between atoms: _73  and  _74
REMARK   37  A    between atoms: _74  and  _75
REMARK   38  A    between atoms: _84  and  _86
REMARK   39  A    between atoms: _86  and  _87
REMARK   40  A    between atoms: _89  and  _91
REMARK   41  A    between atoms: _91  and  _92
REMARK   42  A    between atoms: _91  and  _94
REMARK   43  A    between atoms: _94  and  _95
REMARK   44  A    between atoms: _101  and  _103
REMARK   45  A    between atoms: _103  and  _104
REMARK   46  A    between atoms: _103  and  _106
REMARK   47  A    between atoms: _106  and  _107
REMARK   48  A    between atoms: _117  and  _119
REMARK   49  A    between atoms: _119  and  _120
REMARK   50  A    between atoms: _119  and  _122
REMARK   51  A    between atoms: _125  and  _127
REMARK   52  A    between atoms: _127  and  _128
REMARK   53  A    between atoms: _127  and  _130
REMARK   54  A    between atoms: _130  and  _131
REMARK   55  A    between atoms: _133  and  _135
REMARK   56  A    between atoms: _135  and  _136
REMARK   57  A    between atoms: _135  and  _138
REMARK   58  A    between atoms: _138  and  _139
REMARK   59  A    between atoms: _139  and  _140
REMARK   60  A    between atoms: _143  and  _145
REMARK   61  A    between atoms: _145  and  _146
REMARK   62  A    between atoms: _145  and  _148
REMARK   63  A    between atoms: _148  and  _149
REMARK   64  A    between atoms: _149  and  _150
REMARK   65  A    between atoms: _155  and  _157
REMARK   66  A    between atoms: _157  and  _158
REMARK   67  A    between atoms: _157  and  _160
REMARK   68  A    between atoms: _160  and  _161
REMARK   69  A    between atoms: _166  and  _167
REMARK   70  A    between atoms: _169  and  _171
REMARK   71  A    between atoms: _171  and  _172
REMARK   72  A    between atoms: _175  and  _177
REMARK   73  A    between atoms: _177  and  _178
REMARK   74  A    between atoms: _177  and  _180
REMARK   75  A    between atoms: _180  and  _181
REMARK   76  A    between atoms: _184  and  _186
REMARK   77  A    between atoms: _186  and  _187
REMARK   78  A    between atoms: _186  and  _189
REMARK   79  A    between atoms: _189  and  _190
REMARK   80  A    between atoms: _200  and  _202
REMARK   81  A    between atoms: _202  and  _203
REMARK   82  A    between atoms: _202  and  _205
REMARK   83  A    between atoms: _205  and  _206
REMARK   84  A    between atoms: _206  and  _207
REMARK   85  A    between atoms: _210  and  _212
REMARK   86  A    between atoms: _212  and  _213
REMARK   87  A    between atoms: _212  and  _215
REMARK   88  A    between atoms: _215  and  _216
REMARK   89  A    between atoms: _222  and  _224
REMARK   90  A    between atoms: _224  and  _225
REMARK   91  A    between atoms: _224  and  _227
REMARK   92  A    between atoms: _227  and  _228
REMARK   93  A    between atoms: _234  and  _236
REMARK   94  A    between atoms: _236  and  _237
REMARK   95  A    between atoms: _236  and  _239
REMARK   96  A    between atoms: _239  and  _240
REMARK   97  A    between atoms: _243  and  _245
REMARK   98  A    between atoms: _245  and  _246
REMARK   99  A    between atoms: _245  and  _248
REMARK  100  A    between atoms: _248  and  _249
REMARK  101  A    between atoms: _252  and  _253
REMARK  102  A    between atoms: _258  and  _260
REMARK  103  A    between atoms: _260  and  _261
REMARK  104  A    between atoms: _260  and  _263
REMARK  105  A    between atoms: _263  and  _264
REMARK  106  A    between atoms: _267  and  _269
REMARK  107  A    between atoms: _269  and  _270
REMARK  108  A    between atoms: _269  and  _272
REMARK  109  A    between atoms: _272  and  _273
REMARK  110  A    between atoms: _273  and  _274
REMARK  111  A    between atoms: _274  and  _275
REMARK  112  A    between atoms: _275  and  _276
REMARK  113  A    between atoms: _280  and  _282
REMARK  114  A    between atoms: _282  and  _283
REMARK  115  A    between atoms: _282  and  _285
REMARK  116  A    between atoms: _285  and  _286
REMARK  117  A    between atoms: _286  and  _287
REMARK  118  A    between atoms: _289  and  _291
REMARK  119  A    between atoms: _291  and  _292
REMARK  120  A    between atoms: _291  and  _294
REMARK  121  A    between atoms: _294  and  _295
REMARK  122  A    between atoms: _301  and  _303
REMARK  123  A    between atoms: _303  and  _304
REMARK  124  A    between atoms: _303  and  _306
REMARK  125  A    between atoms: _308  and  _310
REMARK  126  A    between atoms: _310  and  _311
REMARK  127  A    between atoms: _310  and  _313
REMARK  128  A    between atoms: _313  and  _314
REMARK  129  A    between atoms: _314  and  _315
REMARK  130  A    between atoms: _315  and  _316
REMARK  131  A    between atoms: _316  and  _317
REMARK  132  A    between atoms: _321  and  _323
REMARK  133  A    between atoms: _323  and  _324
REMARK  134  A    between atoms: _323  and  _326
REMARK  135  A    between atoms: _326  and  _327
REMARK  136  A    between atoms: _330  and  _332
REMARK  137  A    between atoms: _332  and  _333
REMARK  138  A    between atoms: _332  and  _335
REMARK  139  A    between atoms: _335  and  _336
REMARK  140  A    between atoms: _336  and  _337
REMARK  141  A    between atoms: _337  and  _338
REMARK  142  A    between atoms: _347  and  _349
REMARK  143  A    between atoms: _349  and  _350
REMARK  144  A    between atoms: _349  and  _352
REMARK  145  A    between atoms: _352  and  _353
REMARK  146  A    between atoms: _356  and  _358
REMARK  147  A    between atoms: _358  and  _359
REMARK  148  A    between atoms: _358  and  _361
REMARK  149  A    between atoms: _361  and  _362
REMARK  150  A    between atoms: _362  and  _363
REMARK  151  A    between atoms: _363  and  _364
REMARK  152  A    between atoms: _364  and  _365
REMARK  153  A    between atoms: _369  and  _371
REMARK  154  A    between atoms: _371  and  _372
REMARK  155  A    between atoms: _371  and  _374
REMARK  156  A    between atoms: _374  and  _375
REMARK  157  A    between atoms: _378  and  _380
REMARK  158  A    between atoms: _380  and  _381
REMARK  159  A    between atoms: _380  and  _383
REMARK  160  A    between atoms: _383  and  _384
REMARK  161  A    between atoms: _384  and  _385
REMARK  162  A    between atoms: _385  and  MG_421
REMARK  163  A    between atoms: _387  and  _389
REMARK  164  A    between atoms: _389  and  _390
REMARK  165  A    between atoms: _389  and  _392
REMARK  166  A    between atoms: _392  and  _393
REMARK  167  A    between atoms: _393  and  _394
REMARK  168  A    between atoms: _394  and  _395
REMARK  169  A    between atoms: _404  and  _406
REMARK  170  A    between atoms: _406  and  _407
REMARK  171  A    between atoms: _410  and  _412
REMARK  172  A    between atoms: _412  and  _413
REMARK  173  A    between atoms: _412  and  _415
REMARK  174  A    between atoms: _415  and  _416
REMARK                            x       y       z     vdW  Elec       q    Type
REMARK                         _______ _______ _______ _____ _____    ______ ____
ROOT
ATOM      1  O   HOH     1       3.996  36.862  19.499  0.00  0.00    +0.000 OA
ENDROOT
TORSDOF 0
REMARK  Name = ../refined-set-2016/1q91/1q91_pocket.pdb
REMARK  174 active torsions:
REMARK  status: ('A' for Active; 'I' for Inactive)
REMARK    1  A    between atoms: _1  and  _3
REMARK    2  A    between atoms: _3  and  _4
REMARK    3  A    between atoms: _3  and  _6
REMARK    4  A    between atoms: _6  and  _7
REMARK    5  A    between atoms: _10  and  _12
REMARK    6  A    between atoms: _12  and  _13
REMARK    7  A    between atoms: _12  and  _15
REMARK    8  A    between atoms: _15  and  _16
REMARK    9  A    between atoms: _16  and  _17
REMARK   10  A    between atoms: _19  and  _21
REMARK   11  A    between atoms: _21  and  _22
REMARK   12  A    between atoms: _21  and  _24
REMARK   13  A    between atoms: _22  and  _23
REMARK   14  A    between atoms: _22  and  _28
REMARK   15  A    between atoms: _23  and  MG_421
REMARK   16  A    between atoms: _24  and  _25
REMARK   17  A    between atoms: _28  and  _30
REMARK   18  A    between atoms: _30  and  _31
REMARK   19  A    between atoms: _33  and  _35
REMARK   20  A    between atoms: _35  and  _36
REMARK   21  A    between atoms: _35  and  _38
REMARK   22  A    between atoms: _38  and  _39
REMARK   23  A    between atoms: _45  and  _47
REMARK   24  A    between atoms: _47  and  _48
REMARK   25  A    between atoms: _47  and  _50
REMARK   26  A    between atoms: _50  and  _51
REMARK   27  A    between atoms: _51  and  _52
REMARK   28  A    between atoms: _55  and  _57
REMARK   29  A    between atoms: _57  and  _58
REMARK   30  A    between atoms: _57  and  _60
REMARK   31  A    between atoms: _60  and  _61
REMARK   32  A    between atoms: _67  and  _69
REMARK   33  A    between atoms: _69  and  _70
REMARK   34  A    between atoms: _69  and  _72
REMARK   35  A    between atoms: _72  and  _73
REMARK   36  A    between atoms: _73  and  _74
REMARK   37  A    between atoms: _74  and  _75
REMARK   38  A    between atoms: _84  and  _86
REMARK   39  A    between atoms: _86  and  _87
REMARK   40  A    between atoms: _89  and  _91
REMARK   41  A    between atoms: _91  and  _92
REMARK   42  A    between atoms: _91  and  _94
REMARK   43  A    between atoms: _94  and  _95
REMARK   44  A    between atoms: _101  and  _103
REMARK   45  A    between atoms: _103  and  _104
REMARK   46  A    between atoms: _103  and  _106
REMARK   47  A    between atoms: _106  and  _107
REMARK   48  A    between atoms: _117  and  _119
REMARK   49  A    between atoms: _119  and  _120
REMARK   50  A    between atoms: _119  and  _122
REMARK   51  A    between atoms: _125  and  _127
REMARK   52  A    between atoms: _127  and  _128
REMARK   53  A    between atoms: _127  and  _130
REMARK   54  A    between atoms: _130  and  _131
REMARK   55  A    between atoms: _133  and  _135
REMARK   56  A    between atoms: _135  and  _136
REMARK   57  A    between atoms: _135  and  _138
REMARK   58  A    between atoms: _138  and  _139
REMARK   59  A    between atoms: _139  and  _140
REMARK   60  A    between atoms: _143  and  _145
REMARK   61  A    between atoms: _145  and  _146
REMARK   62  A    between atoms: _145  and  _148
REMARK   63  A    between atoms: _148  and  _149
REMARK   64  A    between atoms: _149  and  _150
REMARK   65  A    between atoms: _155  and  _157
REMARK   66  A    between atoms: _157  and  _158
REMARK   67  A    between atoms: _157  and  _160
REMARK   68  A    between atoms: _160  and  _161
REMARK   69  A    between atoms: _166  and  _167
REMARK   70  A    between atoms: _169  and  _171
REMARK   71  A    between atoms: _171  and  _172
REMARK   72  A    between atoms: _175  and  _177
REMARK   73  A    between atoms: _177  and  _178
REMARK   74  A    between atoms: _177  and  _180
REMARK   75  A    between atoms: _180  and  _181
REMARK   76  A    between atoms: _184  and  _186
REMARK   77  A    between atoms: _186  and  _187
REMARK   78  A    between atoms: _186  and  _189
REMARK   79  A    between atoms: _189  and  _190
REMARK   80  A    between atoms: _200  and  _202
REMARK   81  A    between atoms: _202  and  _203
REMARK   82  A    between atoms: _202  and  _205
REMARK   83  A    between atoms: _205  and  _206
REMARK   84  A    between atoms: _206  and  _207
REMARK   85  A    between atoms: _210  and  _212
REMARK   86  A    between atoms: _212  and  _213
REMARK   87  A    between atoms: _212  and  _215
REMARK   88  A    between atoms: _215  and  _216
REMARK   89  A    between atoms: _222  and  _224
REMARK   90  A    between atoms: _224  and  _225
REMARK   91  A    between atoms: _224  and  _227
REMARK   92  A    between atoms: _227  and  _228
REMARK   93  A    between atoms: _234  and  _236
REMARK   94  A    between atoms: _236  and  _237
REMARK   95  A    between atoms: _236  and  _239
REMARK   96  A    between atoms: _239  and  _240
REMARK   97  A    between atoms: _243  and  _245
REMARK   98  A    between atoms: _245  and  _246
REMARK   99  A    between atoms: _245  and  _248
REMARK  100  A    between atoms: _248  and  _249
REMARK  101  A    between atoms: _252  and  _253
REMARK  102  A    between atoms: _258  and  _260
REMARK  103  A    between atoms: _260  and  _261
REMARK  104  A    between atoms: _260  and  _263
REMARK  105  A    between atoms: _263  and  _264
REMARK  106  A    between atoms: _267  and  _269
REMARK  107  A    between atoms: _269  and  _270
REMARK  108  A    between atoms: _269  and  _272
REMARK  109  A    between atoms: _272  and  _273
REMARK  110  A    between atoms: _273  and  _274
REMARK  111  A    between atoms: _274  and  _275
REMARK  112  A    between atoms: _275  and  _276
REMARK  113  A    between atoms: _280  and  _282
REMARK  114  A    between atoms: _282  and  _283
REMARK  115  A    between atoms: _282  and  _285
REMARK  116  A    between atoms: _285  and  _286
REMARK  117  A    between atoms: _286  and  _287
REMARK  118  A    between atoms: _289  and  _291
REMARK  119  A    between atoms: _291  and  _292
REMARK  120  A    between atoms: _291  and  _294
REMARK  121  A    between atoms: _294  and  _295
REMARK  122  A    between atoms: _301  and  _303
REMARK  123  A    between atoms: _303  and  _304
REMARK  124  A    between atoms: _303  and  _306
REMARK  125  A    between atoms: _308  and  _310
REMARK  126  A    between atoms: _310  and  _311
REMARK  127  A    between atoms: _310  and  _313
REMARK  128  A    between atoms: _313  and  _314
REMARK  129  A    between atoms: _314  and  _315
REMARK  130  A    between atoms: _315  and  _316
REMARK  131  A    between atoms: _316  and  _317
REMARK  132  A    between atoms: _321  and  _323
REMARK  133  A    between atoms: _323  and  _324
REMARK  134  A    between atoms: _323  and  _326
REMARK  135  A    between atoms: _326  and  _327
REMARK  136  A    between atoms: _330  and  _332
REMARK  137  A    between atoms: _332  and  _333
REMARK  138  A    between atoms: _332  and  _335
REMARK  139  A    between atoms: _335  and  _336
REMARK  140  A    between atoms: _336  and  _337
REMARK  141  A    between atoms: _337  and  _338
REMARK  142  A    between atoms: _347  and  _349
REMARK  143  A    between atoms: _349  and  _350
REMARK  144  A    between atoms: _349  and  _352
REMARK  145  A    between atoms: _352  and  _353
REMARK  146  A    between atoms: _356  and  _358
REMARK  147  A    between atoms: _358  and  _359
REMARK  148  A    between atoms: _358  and  _361
REMARK  149  A    between atoms: _361  and  _362
REMARK  150  A    between atoms: _362  and  _363
REMARK  151  A    between atoms: _363  and  _364
REMARK  152  A    between atoms: _364  and  _365
REMARK  153  A    between atoms: _369  and  _371
REMARK  154  A    between atoms: _371  and  _372
REMARK  155  A    between atoms: _371  and  _374
REMARK  156  A    between atoms: _374  and  _375
REMARK  157  A    between atoms: _378  and  _380
REMARK  158  A    between atoms: _380  and  _381
REMARK  159  A    between atoms: _380  and  _383
REMARK  160  A    between atoms: _383  and  _384
REMARK  161  A    between atoms: _384  and  _385
REMARK  162  A    between atoms: _385  and  MG_421
REMARK  163  A    between atoms: _387  and  _389
REMARK  164  A    between atoms: _389  and  _390
REMARK  165  A    between atoms: _389  and  _392
REMARK  166  A    between atoms: _392  and  _393
REMARK  167  A    between atoms: _393  and  _394
REMARK  168  A    between atoms: _394  and  _395
REMARK  169  A    between atoms: _404  and  _406
REMARK  170  A    between atoms: _406  and  _407
REMARK  171  A    between atoms: _410  and  _412
REMARK  172  A    between atoms: _412  and  _413
REMARK  173  A    between atoms: _412  and  _415
REMARK  174  A    between atoms: _415  and  _416
REMARK                            x       y       z     vdW  Elec       q    Type
REMARK                         _______ _______ _______ _____ _____    ______ ____
ROOT
ATOM      1  O   HOH     1       8.899  36.679  20.249  0.00  0.00    +0.000 OA
ENDROOT
TORSDOF 0
REMARK  Name = ../refined-set-2016/1q91/1q91_pocket.pdb
REMARK  174 active torsions:
REMARK  status: ('A' for Active; 'I' for Inactive)
REMARK    1  A    between atoms: _1  and  _3
REMARK    2  A    between atoms: _3  and  _4
REMARK    3  A    between atoms: _3  and  _6
REMARK    4  A    between atoms: _6  and  _7
REMARK    5  A    between atoms: _10  and  _12
REMARK    6  A    between atoms: _12  and  _13
REMARK    7  A    between atoms: _12  and  _15
REMARK    8  A    between atoms: _15  and  _16
REMARK    9  A    between atoms: _16  and  _17
REMARK   10  A    between atoms: _19  and  _21
REMARK   11  A    between atoms: _21  and  _22
REMARK   12  A    between atoms: _21  and  _24
REMARK   13  A    between atoms: _22  and  _23
REMARK   14  A    between atoms: _22  and  _28
REMARK   15  A    between atoms: _23  and  MG_421
REMARK   16  A    between atoms: _24  and  _25
REMARK   17  A    between atoms: _28  and  _30
REMARK   18  A    between atoms: _30  and  _31
REMARK   19  A    between atoms: _33  and  _35
REMARK   20  A    between atoms: _35  and  _36
REMARK   21  A    between atoms: _35  and  _38
REMARK   22  A    between atoms: _38  and  _39
REMARK   23  A    between atoms: _45  and  _47
REMARK   24  A    between atoms: _47  and  _48
REMARK   25  A    between atoms: _47  and  _50
REMARK   26  A    between atoms: _50  and  _51
REMARK   27  A    between atoms: _51  and  _52
REMARK   28  A    between atoms: _55  and  _57
REMARK   29  A    between atoms: _57  and  _58
REMARK   30  A    between atoms: _57  and  _60
REMARK   31  A    between atoms: _60  and  _61
REMARK   32  A    between atoms: _67  and  _69
REMARK   33  A    between atoms: _69  and  _70
REMARK   34  A    between atoms: _69  and  _72
REMARK   35  A    between atoms: _72  and  _73
REMARK   36  A    between atoms: _73  and  _74
REMARK   37  A    between atoms: _74  and  _75
REMARK   38  A    between atoms: _84  and  _86
REMARK   39  A    between atoms: _86  and  _87
REMARK   40  A    between atoms: _89  and  _91
REMARK   41  A    between atoms: _91  and  _92
REMARK   42  A    between atoms: _91  and  _94
REMARK   43  A    between atoms: _94  and  _95
REMARK   44  A    between atoms: _101  and  _103
REMARK   45  A    between atoms: _103  and  _104
REMARK   46  A    between atoms: _103  and  _106
REMARK   47  A    between atoms: _106  and  _107
REMARK   48  A    between atoms: _117  and  _119
REMARK   49  A    between atoms: _119  and  _120
REMARK   50  A    between atoms: _119  and  _122
REMARK   51  A    between atoms: _125  and  _127
REMARK   52  A    between atoms: _127  and  _128
REMARK   53  A    between atoms: _127  and  _130
REMARK   54  A    between atoms: _130  and  _131
REMARK   55  A    between atoms: _133  and  _135
REMARK   56  A    between atoms: _135  and  _136
REMARK   57  A    between atoms: _135  and  _138
REMARK   58  A    between atoms: _138  and  _139
REMARK   59  A    between atoms: _139  and  _140
REMARK   60  A    between atoms: _143  and  _145
REMARK   61  A    between atoms: _145  and  _146
REMARK   62  A    between atoms: _145  and  _148
REMARK   63  A    between atoms: _148  and  _149
REMARK   64  A    between atoms: _149  and  _150
REMARK   65  A    between atoms: _155  and  _157
REMARK   66  A    between atoms: _157  and  _158
REMARK   67  A    between atoms: _157  and  _160
REMARK   68  A    between atoms: _160  and  _161
REMARK   69  A    between atoms: _166  and  _167
REMARK   70  A    between atoms: _169  and  _171
REMARK   71  A    between atoms: _171  and  _172
REMARK   72  A    between atoms: _175  and  _177
REMARK   73  A    between atoms: _177  and  _178
REMARK   74  A    between atoms: _177  and  _180
REMARK   75  A    between atoms: _180  and  _181
REMARK   76  A    between atoms: _184  and  _186
REMARK   77  A    between atoms: _186  and  _187
REMARK   78  A    between atoms: _186  and  _189
REMARK   79  A    between atoms: _189  and  _190
REMARK   80  A    between atoms: _200  and  _202
REMARK   81  A    between atoms: _202  and  _203
REMARK   82  A    between atoms: _202  and  _205
REMARK   83  A    between atoms: _205  and  _206
REMARK   84  A    between atoms: _206  and  _207
REMARK   85  A    between atoms: _210  and  _212
REMARK   86  A    between atoms: _212  and  _213
REMARK   87  A    between atoms: _212  and  _215
REMARK   88  A    between atoms: _215  and  _216
REMARK   89  A    between atoms: _222  and  _224
REMARK   90  A    between atoms: _224  and  _225
REMARK   91  A    between atoms: _224  and  _227
REMARK   92  A    between atoms: _227  and  _228
REMARK   93  A    between atoms: _234  and  _236
REMARK   94  A    between atoms: _236  and  _237
REMARK   95  A    between atoms: _236  and  _239
REMARK   96  A    between atoms: _239  and  _240
REMARK   97  A    between atoms: _243  and  _245
REMARK   98  A    between atoms: _245  and  _246
REMARK   99  A    between atoms: _245  and  _248
REMARK  100  A    between atoms: _248  and  _249
REMARK  101  A    between atoms: _252  and  _253
REMARK  102  A    between atoms: _258  and  _260
REMARK  103  A    between atoms: _260  and  _261
REMARK  104  A    between atoms: _260  and  _263
REMARK  105  A    between atoms: _263  and  _264
REMARK  106  A    between atoms: _267  and  _269
REMARK  107  A    between atoms: _269  and  _270
REMARK  108  A    between atoms: _269  and  _272
REMARK  109  A    between atoms: _272  and  _273
REMARK  110  A    between atoms: _273  and  _274
REMARK  111  A    between atoms: _274  and  _275
REMARK  112  A    between atoms: _275  and  _276
REMARK  113  A    between atoms: _280  and  _282
REMARK  114  A    between atoms: _282  and  _283
REMARK  115  A    between atoms: _282  and  _285
REMARK  116  A    between atoms: _285  and  _286
REMARK  117  A    between atoms: _286  and  _287
REMARK  118  A    between atoms: _289  and  _291
REMARK  119  A    between atoms: _291  and  _292
REMARK  120  A    between atoms: _291  and  _294
REMARK  121  A    between atoms: _294  and  _295
REMARK  122  A    between atoms: _301  and  _303
REMARK  123  A    between atoms: _303  and  _304
REMARK  124  A    between atoms: _303  and  _306
REMARK  125  A    between atoms: _308  and  _310
REMARK  126  A    between atoms: _310  and  _311
REMARK  127  A    between atoms: _310  and  _313
REMARK  128  A    between atoms: _313  and  _314
REMARK  129  A    between atoms: _314  and  _315
REMARK  130  A    between atoms: _315  and  _316
REMARK  131  A    between atoms: _316  and  _317
REMARK  132  A    between atoms: _321  and  _323
REMARK  133  A    between atoms: _323  and  _324
REMARK  134  A    between atoms: _323  and  _326
REMARK  135  A    between atoms: _326  and  _327
REMARK  136  A    between atoms: _330  and  _332
REMARK  137  A    between atoms: _332  and  _333
REMARK  138  A    between atoms: _332  and  _335
REMARK  139  A    between atoms: _335  and  _336
REMARK  140  A    between atoms: _336  and  _337
REMARK  141  A    between atoms: _337  and  _338
REMARK  142  A    between atoms: _347  and  _349
REMARK  143  A    between atoms: _349  and  _350
REMARK  144  A    between atoms: _349  and  _352
REMARK  145  A    between atoms: _352  and  _353
REMARK  146  A    between atoms: _356  and  _358
REMARK  147  A    between atoms: _358  and  _359
REMARK  148  A    between atoms: _358  and  _361
REMARK  149  A    between atoms: _361  and  _362
REMARK  150  A    between atoms: _362  and  _363
REMARK  151  A    between atoms: _363  and  _364
REMARK  152  A    between atoms: _364  and  _365
REMARK  153  A    between atoms: _369  and  _371
REMARK  154  A    between atoms: _371  and  _372
REMARK  155  A    between atoms: _371  and  _374
REMARK  156  A    between atoms: _374  and  _375
REMARK  157  A    between atoms: _378  and  _380
REMARK  158  A    between atoms: _380  and  _381
REMARK  159  A    between atoms: _380  and  _383
REMARK  160  A    between atoms: _383  and  _384
REMARK  161  A    between atoms: _384  and  _385
REMARK  162  A    between atoms: _385  and  MG_421
REMARK  163  A    between atoms: _387  and  _389
REMARK  164  A    between atoms: _389  and  _390
REMARK  165  A    between atoms: _389  and  _392
REMARK  166  A    between atoms: _392  and  _393
REMARK  167  A    between atoms: _393  and  _394
REMARK  168  A    between atoms: _394  and  _395
REMARK  169  A    between atoms: _404  and  _406
REMARK  170  A    between atoms: _406  and  _407
REMARK  171  A    between atoms: _410  and  _412
REMARK  172  A    between atoms: _412  and  _413
REMARK  173  A    between atoms: _412  and  _415
REMARK  174  A    between atoms: _415  and  _416
REMARK                            x       y       z     vdW  Elec       q    Type
REMARK                         _______ _______ _______ _____ _____    ______ ____
ROOT
ATOM      1  O   HOH     1      15.101  41.887  26.986  0.00  0.00    +0.000 OA
ENDROOT
TORSDOF 0
REMARK  Name = ../refined-set-2016/1q91/1q91_pocket.pdb
REMARK  174 active torsions:
REMARK  status: ('A' for Active; 'I' for Inactive)
REMARK    1  A    between atoms: _1  and  _3
REMARK    2  A    between atoms: _3  and  _4
REMARK    3  A    between atoms: _3  and  _6
REMARK    4  A    between atoms: _6  and  _7
REMARK    5  A    between atoms: _10  and  _12
REMARK    6  A    between atoms: _12  and  _13
REMARK    7  A    between atoms: _12  and  _15
REMARK    8  A    between atoms: _15  and  _16
REMARK    9  A    between atoms: _16  and  _17
REMARK   10  A    between atoms: _19  and  _21
REMARK   11  A    between atoms: _21  and  _22
REMARK   12  A    between atoms: _21  and  _24
REMARK   13  A    between atoms: _22  and  _23
REMARK   14  A    between atoms: _22  and  _28
REMARK   15  A    between atoms: _23  and  MG_421
REMARK   16  A    between atoms: _24  and  _25
REMARK   17  A    between atoms: _28  and  _30
REMARK   18  A    between atoms: _30  and  _31
REMARK   19  A    between atoms: _33  and  _35
REMARK   20  A    between atoms: _35  and  _36
REMARK   21  A    between atoms: _35  and  _38
REMARK   22  A    between atoms: _38  and  _39
REMARK   23  A    between atoms: _45  and  _47
REMARK   24  A    between atoms: _47  and  _48
REMARK   25  A    between atoms: _47  and  _50
REMARK   26  A    between atoms: _50  and  _51
REMARK   27  A    between atoms: _51  and  _52
REMARK   28  A    between atoms: _55  and  _57
REMARK   29  A    between atoms: _57  and  _58
REMARK   30  A    between atoms: _57  and  _60
REMARK   31  A    between atoms: _60  and  _61
REMARK   32  A    between atoms: _67  and  _69
REMARK   33  A    between atoms: _69  and  _70
REMARK   34  A    between atoms: _69  and  _72
REMARK   35  A    between atoms: _72  and  _73
REMARK   36  A    between atoms: _73  and  _74
REMARK   37  A    between atoms: _74  and  _75
REMARK   38  A    between atoms: _84  and  _86
REMARK   39  A    between atoms: _86  and  _87
REMARK   40  A    between atoms: _89  and  _91
REMARK   41  A    between atoms: _91  and  _92
REMARK   42  A    between atoms: _91  and  _94
REMARK   43  A    between atoms: _94  and  _95
REMARK   44  A    between atoms: _101  and  _103
REMARK   45  A    between atoms: _103  and  _104
REMARK   46  A    between atoms: _103  and  _106
REMARK   47  A    between atoms: _106  and  _107
REMARK   48  A    between atoms: _117  and  _119
REMARK   49  A    between atoms: _119  and  _120
REMARK   50  A    between atoms: _119  and  _122
REMARK   51  A    between atoms: _125  and  _127
REMARK   52  A    between atoms: _127  and  _128
REMARK   53  A    between atoms: _127  and  _130
REMARK   54  A    between atoms: _130  and  _131
REMARK   55  A    between atoms: _133  and  _135
REMARK   56  A    between atoms: _135  and  _136
REMARK   57  A    between atoms: _135  and  _138
REMARK   58  A    between atoms: _138  and  _139
REMARK   59  A    between atoms: _139  and  _140
REMARK   60  A    between atoms: _143  and  _145
REMARK   61  A    between atoms: _145  and  _146
REMARK   62  A    between atoms: _145  and  _148
REMARK   63  A    between atoms: _148  and  _149
REMARK   64  A    between atoms: _149  and  _150
REMARK   65  A    between atoms: _155  and  _157
REMARK   66  A    between atoms: _157  and  _158
REMARK   67  A    between atoms: _157  and  _160
REMARK   68  A    between atoms: _160  and  _161
REMARK   69  A    between atoms: _166  and  _167
REMARK   70  A    between atoms: _169  and  _171
REMARK   71  A    between atoms: _171  and  _172
REMARK   72  A    between atoms: _175  and  _177
REMARK   73  A    between atoms: _177  and  _178
REMARK   74  A    between atoms: _177  and  _180
REMARK   75  A    between atoms: _180  and  _181
REMARK   76  A    between atoms: _184  and  _186
REMARK   77  A    between atoms: _186  and  _187
REMARK   78  A    between atoms: _186  and  _189
REMARK   79  A    between atoms: _189  and  _190
REMARK   80  A    between atoms: _200  and  _202
REMARK   81  A    between atoms: _202  and  _203
REMARK   82  A    between atoms: _202  and  _205
REMARK   83  A    between atoms: _205  and  _206
REMARK   84  A    between atoms: _206  and  _207
REMARK   85  A    between atoms: _210  and  _212
REMARK   86  A    between atoms: _212  and  _213
REMARK   87  A    between atoms: _212  and  _215
REMARK   88  A    between atoms: _215  and  _216
REMARK   89  A    between atoms: _222  and  _224
REMARK   90  A    between atoms: _224  and  _225
REMARK   91  A    between atoms: _224  and  _227
REMARK   92  A    between atoms: _227  and  _228
REMARK   93  A    between atoms: _234  and  _236
REMARK   94  A    between atoms: _236  and  _237
REMARK   95  A    between atoms: _236  and  _239
REMARK   96  A    between atoms: _239  and  _240
REMARK   97  A    between atoms: _243  and  _245
REMARK   98  A    between atoms: _245  and  _246
REMARK   99  A    between atoms: _245  and  _248
REMARK  100  A    between atoms: _248  and  _249
REMARK  101  A    between atoms: _252  and  _253
REMARK  102  A    between atoms: _258  and  _260
REMARK  103  A    between atoms: _260  and  _261
REMARK  104  A    between atoms: _260  and  _263
REMARK  105  A    between atoms: _263  and  _264
REMARK  106  A    between atoms: _267  and  _269
REMARK  107  A    between atoms: _269  and  _270
REMARK  108  A    between atoms: _269  and  _272
REMARK  109  A    between atoms: _272  and  _273
REMARK  110  A    between atoms: _273  and  _274
REMARK  111  A    between atoms: _274  and  _275
REMARK  112  A    between atoms: _275  and  _276
REMARK  113  A    between atoms: _280  and  _282
REMARK  114  A    between atoms: _282  and  _283
REMARK  115  A    between atoms: _282  and  _285
REMARK  116  A    between atoms: _285  and  _286
REMARK  117  A    between atoms: _286  and  _287
REMARK  118  A    between atoms: _289  and  _291
REMARK  119  A    between atoms: _291  and  _292
REMARK  120  A    between atoms: _291  and  _294
REMARK  121  A    between atoms: _294  and  _295
REMARK  122  A    between atoms: _301  and  _303
REMARK  123  A    between atoms: _303  and  _304
REMARK  124  A    between atoms: _303  and  _306
REMARK  125  A    between atoms: _308  and  _310
REMARK  126  A    between atoms: _310  and  _311
REMARK  127  A    between atoms: _310  and  _313
REMARK  128  A    between atoms: _313  and  _314
REMARK  129  A    between atoms: _314  and  _315
REMARK  130  A    between atoms: _315  and  _316
REMARK  131  A    between atoms: _316  and  _317
REMARK  132  A    between atoms: _321  and  _323
REMARK  133  A    between atoms: _323  and  _324
REMARK  134  A    between atoms: _323  and  _326
REMARK  135  A    between atoms: _326  and  _327
REMARK  136  A    between atoms: _330  and  _332
REMARK  137  A    between atoms: _332  and  _333
REMARK  138  A    between atoms: _332  and  _335
REMARK  139  A    between atoms: _335  and  _336
REMARK  140  A    between atoms: _336  and  _337
REMARK  141  A    between atoms: _337  and  _338
REMARK  142  A    between atoms: _347  and  _349
REMARK  143  A    between atoms: _349  and  _350
REMARK  144  A    between atoms: _349  and  _352
REMARK  145  A    between atoms: _352  and  _353
REMARK  146  A    between atoms: _356  and  _358
REMARK  147  A    between atoms: _358  and  _359
REMARK  148  A    between atoms: _358  and  _361
REMARK  149  A    between atoms: _361  and  _362
REMARK  150  A    between atoms: _362  and  _363
REMARK  151  A    between atoms: _363  and  _364
REMARK  152  A    between atoms: _364  and  _365
REMARK  153  A    between atoms: _369  and  _371
REMARK  154  A    between atoms: _371  and  _372
REMARK  155  A    between atoms: _371  and  _374
REMARK  156  A    between atoms: _374  and  _375
REMARK  157  A    between atoms: _378  and  _380
REMARK  158  A    between atoms: _380  and  _381
REMARK  159  A    between atoms: _380  and  _383
REMARK  160  A    between atoms: _383  and  _384
REMARK  161  A    between atoms: _384  and  _385
REMARK  162  A    between atoms: _385  and  MG_421
REMARK  163  A    between atoms: _387  and  _389
REMARK  164  A    between atoms: _389  and  _390
REMARK  165  A    between atoms: _389  and  _392
REMARK  166  A    between atoms: _392  and  _393
REMARK  167  A    between atoms: _393  and  _394
REMARK  168  A    between atoms: _394  and  _395
REMARK  169  A    between atoms: _404  and  _406
REMARK  170  A    between atoms: _406  and  _407
REMARK  171  A    between atoms: _410  and  _412
REMARK  172  A    between atoms: _412  and  _413
REMARK  173  A    between atoms: _412  and  _415
REMARK  174  A    between atoms: _415  and  _416
REMARK                            x       y       z     vdW  Elec       q    Type
REMARK                         _______ _______ _______ _____ _____    ______ ____
ROOT
ATOM      1  O   HOH     1       7.254  41.000  19.745  0.00  0.00    +0.000 OA
ENDROOT
TORSDOF 0
REMARK  Name = ../refined-set-2016/1q91/1q91_pocket.pdb
REMARK  174 active torsions:
REMARK  status: ('A' for Active; 'I' for Inactive)
REMARK    1  A    between atoms: _1  and  _3
REMARK    2  A    between atoms: _3  and  _4
REMARK    3  A    between atoms: _3  and  _6
REMARK    4  A    between atoms: _6  and  _7
REMARK    5  A    between atoms: _10  and  _12
REMARK    6  A    between atoms: _12  and  _13
REMARK    7  A    between atoms: _12  and  _15
REMARK    8  A    between atoms: _15  and  _16
REMARK    9  A    between atoms: _16  and  _17
REMARK   10  A    between atoms: _19  and  _21
REMARK   11  A    between atoms: _21  and  _22
REMARK   12  A    between atoms: _21  and  _24
REMARK   13  A    between atoms: _22  and  _23
REMARK   14  A    between atoms: _22  and  _28
REMARK   15  A    between atoms: _23  and  MG_421
REMARK   16  A    between atoms: _24  and  _25
REMARK   17  A    between atoms: _28  and  _30
REMARK   18  A    between atoms: _30  and  _31
REMARK   19  A    between atoms: _33  and  _35
REMARK   20  A    between atoms: _35  and  _36
REMARK   21  A    between atoms: _35  and  _38
REMARK   22  A    between atoms: _38  and  _39
REMARK   23  A    between atoms: _45  and  _47
REMARK   24  A    between atoms: _47  and  _48
REMARK   25  A    between atoms: _47  and  _50
REMARK   26  A    between atoms: _50  and  _51
REMARK   27  A    between atoms: _51  and  _52
REMARK   28  A    between atoms: _55  and  _57
REMARK   29  A    between atoms: _57  and  _58
REMARK   30  A    between atoms: _57  and  _60
REMARK   31  A    between atoms: _60  and  _61
REMARK   32  A    between atoms: _67  and  _69
REMARK   33  A    between atoms: _69  and  _70
REMARK   34  A    between atoms: _69  and  _72
REMARK   35  A    between atoms: _72  and  _73
REMARK   36  A    between atoms: _73  and  _74
REMARK   37  A    between atoms: _74  and  _75
REMARK   38  A    between atoms: _84  and  _86
REMARK   39  A    between atoms: _86  and  _87
REMARK   40  A    between atoms: _89  and  _91
REMARK   41  A    between atoms: _91  and  _92
REMARK   42  A    between atoms: _91  and  _94
REMARK   43  A    between atoms: _94  and  _95
REMARK   44  A    between atoms: _101  and  _103
REMARK   45  A    between atoms: _103  and  _104
REMARK   46  A    between atoms: _103  and  _106
REMARK   47  A    between atoms: _106  and  _107
REMARK   48  A    between atoms: _117  and  _119
REMARK   49  A    between atoms: _119  and  _120
REMARK   50  A    between atoms: _119  and  _122
REMARK   51  A    between atoms: _125  and  _127
REMARK   52  A    between atoms: _127  and  _128
REMARK   53  A    between atoms: _127  and  _130
REMARK   54  A    between atoms: _130  and  _131
REMARK   55  A    between atoms: _133  and  _135
REMARK   56  A    between atoms: _135  and  _136
REMARK   57  A    between atoms: _135  and  _138
REMARK   58  A    between atoms: _138  and  _139
REMARK   59  A    between atoms: _139  and  _140
REMARK   60  A    between atoms: _143  and  _145
REMARK   61  A    between atoms: _145  and  _146
REMARK   62  A    between atoms: _145  and  _148
REMARK   63  A    between atoms: _148  and  _149
REMARK   64  A    between atoms: _149  and  _150
REMARK   65  A    between atoms: _155  and  _157
REMARK   66  A    between atoms: _157  and  _158
REMARK   67  A    between atoms: _157  and  _160
REMARK   68  A    between atoms: _160  and  _161
REMARK   69  A    between atoms: _166  and  _167
REMARK   70  A    between atoms: _169  and  _171
REMARK   71  A    between atoms: _171  and  _172
REMARK   72  A    between atoms: _175  and  _177
REMARK   73  A    between atoms: _177  and  _178
REMARK   74  A    between atoms: _177  and  _180
REMARK   75  A    between atoms: _180  and  _181
REMARK   76  A    between atoms: _184  and  _186
REMARK   77  A    between atoms: _186  and  _187
REMARK   78  A    between atoms: _186  and  _189
REMARK   79  A    between atoms: _189  and  _190
REMARK   80  A    between atoms: _200  and  _202
REMARK   81  A    between atoms: _202  and  _203
REMARK   82  A    between atoms: _202  and  _205
REMARK   83  A    between atoms: _205  and  _206
REMARK   84  A    between atoms: _206  and  _207
REMARK   85  A    between atoms: _210  and  _212
REMARK   86  A    between atoms: _212  and  _213
REMARK   87  A    between atoms: _212  and  _215
REMARK   88  A    between atoms: _215  and  _216
REMARK   89  A    between atoms: _222  and  _224
REMARK   90  A    between atoms: _224  and  _225
REMARK   91  A    between atoms: _224  and  _227
REMARK   92  A    between atoms: _227  and  _228
REMARK   93  A    between atoms: _234  and  _236
REMARK   94  A    between atoms: _236  and  _237
REMARK   95  A    between atoms: _236  and  _239
REMARK   96  A    between atoms: _239  and  _240
REMARK   97  A    between atoms: _243  and  _245
REMARK   98  A    between atoms: _245  and  _246
REMARK   99  A    between atoms: _245  and  _248
REMARK  100  A    between atoms: _248  and  _249
REMARK  101  A    between atoms: _252  and  _253
REMARK  102  A    between atoms: _258  and  _260
REMARK  103  A    between atoms: _260  and  _261
REMARK  104  A    between atoms: _260  and  _263
REMARK  105  A    between atoms: _263  and  _264
REMARK  106  A    between atoms: _267  and  _269
REMARK  107  A    between atoms: _269  and  _270
REMARK  108  A    between atoms: _269  and  _272
REMARK  109  A    between atoms: _272  and  _273
REMARK  110  A    between atoms: _273  and  _274
REMARK  111  A    between atoms: _274  and  _275
REMARK  112  A    between atoms: _275  and  _276
REMARK  113  A    between atoms: _280  and  _282
REMARK  114  A    between atoms: _282  and  _283
REMARK  115  A    between atoms: _282  and  _285
REMARK  116  A    between atoms: _285  and  _286
REMARK  117  A    between atoms: _286  and  _287
REMARK  118  A    between atoms: _289  and  _291
REMARK  119  A    between atoms: _291  and  _292
REMARK  120  A    between atoms: _291  and  _294
REMARK  121  A    between atoms: _294  and  _295
REMARK  122  A    between atoms: _301  and  _303
REMARK  123  A    between atoms: _303  and  _304
REMARK  124  A    between atoms: _303  and  _306
REMARK  125  A    between atoms: _308  and  _310
REMARK  126  A    between atoms: _310  and  _311
REMARK  127  A    between atoms: _310  and  _313
REMARK  128  A    between atoms: _313  and  _314
REMARK  129  A    between atoms: _314  and  _315
REMARK  130  A    between atoms: _315  and  _316
REMARK  131  A    between atoms: _316  and  _317
REMARK  132  A    between atoms: _321  and  _323
REMARK  133  A    between atoms: _323  and  _324
REMARK  134  A    between atoms: _323  and  _326
REMARK  135  A    between atoms: _326  and  _327
REMARK  136  A    between atoms: _330  and  _332
REMARK  137  A    between atoms: _332  and  _333
REMARK  138  A    between atoms: _332  and  _335
REMARK  139  A    between atoms: _335  and  _336
REMARK  140  A    between atoms: _336  and  _337
REMARK  141  A    between atoms: _337  and  _338
REMARK  142  A    between atoms: _347  and  _349
REMARK  143  A    between atoms: _349  and  _350
REMARK  144  A    between atoms: _349  and  _352
REMARK  145  A    between atoms: _352  and  _353
REMARK  146  A    between atoms: _356  and  _358
REMARK  147  A    between atoms: _358  and  _359
REMARK  148  A    between atoms: _358  and  _361
REMARK  149  A    between atoms: _361  and  _362
REMARK  150  A    between atoms: _362  and  _363
REMARK  151  A    between atoms: _363  and  _364
REMARK  152  A    between atoms: _364  and  _365
REMARK  153  A    between atoms: _369  and  _371
REMARK  154  A    between atoms: _371  and  _372
REMARK  155  A    between atoms: _371  and  _374
REMARK  156  A    between atoms: _374  and  _375
REMARK  157  A    between atoms: _378  and  _380
REMARK  158  A    between atoms: _380  and  _381
REMARK  159  A    between atoms: _380  and  _383
REMARK  160  A    between atoms: _383  and  _384
REMARK  161  A    between atoms: _384  and  _385
REMARK  162  A    between atoms: _385  and  MG_421
REMARK  163  A    between atoms: _387  and  _389
REMARK  164  A    between atoms: _389  and  _390
REMARK  165  A    between atoms: _389  and  _392
REMARK  166  A    between atoms: _392  and  _393
REMARK  167  A    between atoms: _393  and  _394
REMARK  168  A    between atoms: _394  and  _395
REMARK  169  A    between atoms: _404  and  _406
REMARK  170  A    between atoms: _406  and  _407
REMARK  171  A    between atoms: _410  and  _412
REMARK  172  A    between atoms: _412  and  _413
REMARK  173  A    between atoms: _412  and  _415
REMARK  174  A    between atoms: _415  and  _416
REMARK                            x       y       z     vdW  Elec       q    Type
REMARK                         _______ _______ _______ _____ _____    ______ ____
ROOT
ATOM      1  O   HOH     1      12.702  35.300  18.984  0.00  0.00    +0.000 OA
ENDROOT
TORSDOF 0
REMARK  Name = ../refined-set-2016/1q91/1q91_pocket.pdb
REMARK  174 active torsions:
REMARK  status: ('A' for Active; 'I' for Inactive)
REMARK    1  A    between atoms: _1  and  _3
REMARK    2  A    between atoms: _3  and  _4
REMARK    3  A    between atoms: _3  and  _6
REMARK    4  A    between atoms: _6  and  _7
REMARK    5  A    between atoms: _10  and  _12
REMARK    6  A    between atoms: _12  and  _13
REMARK    7  A    between atoms: _12  and  _15
REMARK    8  A    between atoms: _15  and  _16
REMARK    9  A    between atoms: _16  and  _17
REMARK   10  A    between atoms: _19  and  _21
REMARK   11  A    between atoms: _21  and  _22
REMARK   12  A    between atoms: _21  and  _24
REMARK   13  A    between atoms: _22  and  _23
REMARK   14  A    between atoms: _22  and  _28
REMARK   15  A    between atoms: _23  and  MG_421
REMARK   16  A    between atoms: _24  and  _25
REMARK   17  A    between atoms: _28  and  _30
REMARK   18  A    between atoms: _30  and  _31
REMARK   19  A    between atoms: _33  and  _35
REMARK   20  A    between atoms: _35  and  _36
REMARK   21  A    between atoms: _35  and  _38
REMARK   22  A    between atoms: _38  and  _39
REMARK   23  A    between atoms: _45  and  _47
REMARK   24  A    between atoms: _47  and  _48
REMARK   25  A    between atoms: _47  and  _50
REMARK   26  A    between atoms: _50  and  _51
REMARK   27  A    between atoms: _51  and  _52
REMARK   28  A    between atoms: _55  and  _57
REMARK   29  A    between atoms: _57  and  _58
REMARK   30  A    between atoms: _57  and  _60
REMARK   31  A    between atoms: _60  and  _61
REMARK   32  A    between atoms: _67  and  _69
REMARK   33  A    between atoms: _69  and  _70
REMARK   34  A    between atoms: _69  and  _72
REMARK   35  A    between atoms: _72  and  _73
REMARK   36  A    between atoms: _73  and  _74
REMARK   37  A    between atoms: _74  and  _75
REMARK   38  A    between atoms: _84  and  _86
REMARK   39  A    between atoms: _86  and  _87
REMARK   40  A    between atoms: _89  and  _91
REMARK   41  A    between atoms: _91  and  _92
REMARK   42  A    between atoms: _91  and  _94
REMARK   43  A    between atoms: _94  and  _95
REMARK   44  A    between atoms: _101  and  _103
REMARK   45  A    between atoms: _103  and  _104
REMARK   46  A    between atoms: _103  and  _106
REMARK   47  A    between atoms: _106  and  _107
REMARK   48  A    between atoms: _117  and  _119
REMARK   49  A    between atoms: _119  and  _120
REMARK   50  A    between atoms: _119  and  _122
REMARK   51  A    between atoms: _125  and  _127
REMARK   52  A    between atoms: _127  and  _128
REMARK   53  A    between atoms: _127  and  _130
REMARK   54  A    between atoms: _130  and  _131
REMARK   55  A    between atoms: _133  and  _135
REMARK   56  A    between atoms: _135  and  _136
REMARK   57  A    between atoms: _135  and  _138
REMARK   58  A    between atoms: _138  and  _139
REMARK   59  A    between atoms: _139  and  _140
REMARK   60  A    between atoms: _143  and  _145
REMARK   61  A    between atoms: _145  and  _146
REMARK   62  A    between atoms: _145  and  _148
REMARK   63  A    between atoms: _148  and  _149
REMARK   64  A    between atoms: _149  and  _150
REMARK   65  A    between atoms: _155  and  _157
REMARK   66  A    between atoms: _157  and  _158
REMARK   67  A    between atoms: _157  and  _160
REMARK   68  A    between atoms: _160  and  _161
REMARK   69  A    between atoms: _166  and  _167
REMARK   70  A    between atoms: _169  and  _171
REMARK   71  A    between atoms: _171  and  _172
REMARK   72  A    between atoms: _175  and  _177
REMARK   73  A    between atoms: _177  and  _178
REMARK   74  A    between atoms: _177  and  _180
REMARK   75  A    between atoms: _180  and  _181
REMARK   76  A    between atoms: _184  and  _186
REMARK   77  A    between atoms: _186  and  _187
REMARK   78  A    between atoms: _186  and  _189
REMARK   79  A    between atoms: _189  and  _190
REMARK   80  A    between atoms: _200  and  _202
REMARK   81  A    between atoms: _202  and  _203
REMARK   82  A    between atoms: _202  and  _205
REMARK   83  A    between atoms: _205  and  _206
REMARK   84  A    between atoms: _206  and  _207
REMARK   85  A    between atoms: _210  and  _212
REMARK   86  A    between atoms: _212  and  _213
REMARK   87  A    between atoms: _212  and  _215
REMARK   88  A    between atoms: _215  and  _216
REMARK   89  A    between atoms: _222  and  _224
REMARK   90  A    between atoms: _224  and  _225
REMARK   91  A    between atoms: _224  and  _227
REMARK   92  A    between atoms: _227  and  _228
REMARK   93  A    between atoms: _234  and  _236
REMARK   94  A    between atoms: _236  and  _237
REMARK   95  A    between atoms: _236  and  _239
REMARK   96  A    between atoms: _239  and  _240
REMARK   97  A    between atoms: _243  and  _245
REMARK   98  A    between atoms: _245  and  _246
REMARK   99  A    between atoms: _245  and  _248
REMARK  100  A    between atoms: _248  and  _249
REMARK  101  A    between atoms: _252  and  _253
REMARK  102  A    between atoms: _258  and  _260
REMARK  103  A    between atoms: _260  and  _261
REMARK  104  A    between atoms: _260  and  _263
REMARK  105  A    between atoms: _263  and  _264
REMARK  106  A    between atoms: _267  and  _269
REMARK  107  A    between atoms: _269  and  _270
REMARK  108  A    between atoms: _269  and  _272
REMARK  109  A    between atoms: _272  and  _273
REMARK  110  A    between atoms: _273  and  _274
REMARK  111  A    between atoms: _274  and  _275
REMARK  112  A    between atoms: _275  and  _276
REMARK  113  A    between atoms: _280  and  _282
REMARK  114  A    between atoms: _282  and  _283
REMARK  115  A    between atoms: _282  and  _285
REMARK  116  A    between atoms: _285  and  _286
REMARK  117  A    between atoms: _286  and  _287
REMARK  118  A    between atoms: _289  and  _291
REMARK  119  A    between atoms: _291  and  _292
REMARK  120  A    between atoms: _291  and  _294
REMARK  121  A    between atoms: _294  and  _295
REMARK  122  A    between atoms: _301  and  _303
REMARK  123  A    between atoms: _303  and  _304
REMARK  124  A    between atoms: _303  and  _306
REMARK  125  A    between atoms: _308  and  _310
REMARK  126  A    between atoms: _310  and  _311
REMARK  127  A    between atoms: _310  and  _313
REMARK  128  A    between atoms: _313  and  _314
REMARK  129  A    between atoms: _314  and  _315
REMARK  130  A    between atoms: _315  and  _316
REMARK  131  A    between atoms: _316  and  _317
REMARK  132  A    between atoms: _321  and  _323
REMARK  133  A    between atoms: _323  and  _324
REMARK  134  A    between atoms: _323  and  _326
REMARK  135  A    between atoms: _326  and  _327
REMARK  136  A    between atoms: _330  and  _332
REMARK  137  A    between atoms: _332  and  _333
REMARK  138  A    between atoms: _332  and  _335
REMARK  139  A    between atoms: _335  and  _336
REMARK  140  A    between atoms: _336  and  _337
REMARK  141  A    between atoms: _337  and  _338
REMARK  142  A    between atoms: _347  and  _349
REMARK  143  A    between atoms: _349  and  _350
REMARK  144  A    between atoms: _349  and  _352
REMARK  145  A    between atoms: _352  and  _353
REMARK  146  A    between atoms: _356  and  _358
REMARK  147  A    between atoms: _358  and  _359
REMARK  148  A    between atoms: _358  and  _361
REMARK  149  A    between atoms: _361  and  _362
REMARK  150  A    between atoms: _362  and  _363
REMARK  151  A    between atoms: _363  and  _364
REMARK  152  A    between atoms: _364  and  _365
REMARK  153  A    between atoms: _369  and  _371
REMARK  154  A    between atoms: _371  and  _372
REMARK  155  A    between atoms: _371  and  _374
REMARK  156  A    between atoms: _374  and  _375
REMARK  157  A    between atoms: _378  and  _380
REMARK  158  A    between atoms: _380  and  _381
REMARK  159  A    between atoms: _380  and  _383
REMARK  160  A    between atoms: _383  and  _384
REMARK  161  A    between atoms: _384  and  _385
REMARK  162  A    between atoms: _385  and  MG_421
REMARK  163  A    between atoms: _387  and  _389
REMARK  164  A    between atoms: _389  and  _390
REMARK  165  A    between atoms: _389  and  _392
REMARK  166  A    between atoms: _392  and  _393
REMARK  167  A    between atoms: _393  and  _394
REMARK  168  A    between atoms: _394  and  _395
REMARK  169  A    between atoms: _404  and  _406
REMARK  170  A    between atoms: _406  and  _407
REMARK  171  A    between atoms: _410  and  _412
REMARK  172  A    between atoms: _412  and  _413
REMARK  173  A    between atoms: _412  and  _415
REMARK  174  A    between atoms: _415  and  _416
REMARK                            x       y       z     vdW  Elec       q    Type
REMARK                         _______ _______ _______ _____ _____    ______ ____
ROOT
ATOM      1  O   HOH     1      15.032  49.654  24.115  0.00  0.00    +0.000 OA
ENDROOT
TORSDOF 0
REMARK  Name = ../refined-set-2016/1q91/1q91_pocket.pdb
REMARK  174 active torsions:
REMARK  status: ('A' for Active; 'I' for Inactive)
REMARK    1  A    between atoms: _1  and  _3
REMARK    2  A    between atoms: _3  and  _4
REMARK    3  A    between atoms: _3  and  _6
REMARK    4  A    between atoms: _6  and  _7
REMARK    5  A    between atoms: _10  and  _12
REMARK    6  A    between atoms: _12  and  _13
REMARK    7  A    between atoms: _12  and  _15
REMARK    8  A    between atoms: _15  and  _16
REMARK    9  A    between atoms: _16  and  _17
REMARK   10  A    between atoms: _19  and  _21
REMARK   11  A    between atoms: _21  and  _22
REMARK   12  A    between atoms: _21  and  _24
REMARK   13  A    between atoms: _22  and  _23
REMARK   14  A    between atoms: _22  and  _28
REMARK   15  A    between atoms: _23  and  MG_421
REMARK   16  A    between atoms: _24  and  _25
REMARK   17  A    between atoms: _28  and  _30
REMARK   18  A    between atoms: _30  and  _31
REMARK   19  A    between atoms: _33  and  _35
REMARK   20  A    between atoms: _35  and  _36
REMARK   21  A    between atoms: _35  and  _38
REMARK   22  A    between atoms: _38  and  _39
REMARK   23  A    between atoms: _45  and  _47
REMARK   24  A    between atoms: _47  and  _48
REMARK   25  A    between atoms: _47  and  _50
REMARK   26  A    between atoms: _50  and  _51
REMARK   27  A    between atoms: _51  and  _52
REMARK   28  A    between atoms: _55  and  _57
REMARK   29  A    between atoms: _57  and  _58
REMARK   30  A    between atoms: _57  and  _60
REMARK   31  A    between atoms: _60  and  _61
REMARK   32  A    between atoms: _67  and  _69
REMARK   33  A    between atoms: _69  and  _70
REMARK   34  A    between atoms: _69  and  _72
REMARK   35  A    between atoms: _72  and  _73
REMARK   36  A    between atoms: _73  and  _74
REMARK   37  A    between atoms: _74  and  _75
REMARK   38  A    between atoms: _84  and  _86
REMARK   39  A    between atoms: _86  and  _87
REMARK   40  A    between atoms: _89  and  _91
REMARK   41  A    between atoms: _91  and  _92
REMARK   42  A    between atoms: _91  and  _94
REMARK   43  A    between atoms: _94  and  _95
REMARK   44  A    between atoms: _101  and  _103
REMARK   45  A    between atoms: _103  and  _104
REMARK   46  A    between atoms: _103  and  _106
REMARK   47  A    between atoms: _106  and  _107
REMARK   48  A    between atoms: _117  and  _119
REMARK   49  A    between atoms: _119  and  _120
REMARK   50  A    between atoms: _119  and  _122
REMARK   51  A    between atoms: _125  and  _127
REMARK   52  A    between atoms: _127  and  _128
REMARK   53  A    between atoms: _127  and  _130
REMARK   54  A    between atoms: _130  and  _131
REMARK   55  A    between atoms: _133  and  _135
REMARK   56  A    between atoms: _135  and  _136
REMARK   57  A    between atoms: _135  and  _138
REMARK   58  A    between atoms: _138  and  _139
REMARK   59  A    between atoms: _139  and  _140
REMARK   60  A    between atoms: _143  and  _145
REMARK   61  A    between atoms: _145  and  _146
REMARK   62  A    between atoms: _145  and  _148
REMARK   63  A    between atoms: _148  and  _149
REMARK   64  A    between atoms: _149  and  _150
REMARK   65  A    between atoms: _155  and  _157
REMARK   66  A    between atoms: _157  and  _158
REMARK   67  A    between atoms: _157  and  _160
REMARK   68  A    between atoms: _160  and  _161
REMARK   69  A    between atoms: _166  and  _167
REMARK   70  A    between atoms: _169  and  _171
REMARK   71  A    between atoms: _171  and  _172
REMARK   72  A    between atoms: _175  and  _177
REMARK   73  A    between atoms: _177  and  _178
REMARK   74  A    between atoms: _177  and  _180
REMARK   75  A    between atoms: _180  and  _181
REMARK   76  A    between atoms: _184  and  _186
REMARK   77  A    between atoms: _186  and  _187
REMARK   78  A    between atoms: _186  and  _189
REMARK   79  A    between atoms: _189  and  _190
REMARK   80  A    between atoms: _200  and  _202
REMARK   81  A    between atoms: _202  and  _203
REMARK   82  A    between atoms: _202  and  _205
REMARK   83  A    between atoms: _205  and  _206
REMARK   84  A    between atoms: _206  and  _207
REMARK   85  A    between atoms: _210  and  _212
REMARK   86  A    between atoms: _212  and  _213
REMARK   87  A    between atoms: _212  and  _215
REMARK   88  A    between atoms: _215  and  _216
REMARK   89  A    between atoms: _222  and  _224
REMARK   90  A    between atoms: _224  and  _225
REMARK   91  A    between atoms: _224  and  _227
REMARK   92  A    between atoms: _227  and  _228
REMARK   93  A    between atoms: _234  and  _236
REMARK   94  A    between atoms: _236  and  _237
REMARK   95  A    between atoms: _236  and  _239
REMARK   96  A    between atoms: _239  and  _240
REMARK   97  A    between atoms: _243  and  _245
REMARK   98  A    between atoms: _245  and  _246
REMARK   99  A    between atoms: _245  and  _248
REMARK  100  A    between atoms: _248  and  _249
REMARK  101  A    between atoms: _252  and  _253
REMARK  102  A    between atoms: _258  and  _260
REMARK  103  A    between atoms: _260  and  _261
REMARK  104  A    between atoms: _260  and  _263
REMARK  105  A    between atoms: _263  and  _264
REMARK  106  A    between atoms: _267  and  _269
REMARK  107  A    between atoms: _269  and  _270
REMARK  108  A    between atoms: _269  and  _272
REMARK  109  A    between atoms: _272  and  _273
REMARK  110  A    between atoms: _273  and  _274
REMARK  111  A    between atoms: _274  and  _275
REMARK  112  A    between atoms: _275  and  _276
REMARK  113  A    between atoms: _280  and  _282
REMARK  114  A    between atoms: _282  and  _283
REMARK  115  A    between atoms: _282  and  _285
REMARK  116  A    between atoms: _285  and  _286
REMARK  117  A    between atoms: _286  and  _287
REMARK  118  A    between atoms: _289  and  _291
REMARK  119  A    between atoms: _291  and  _292
REMARK  120  A    between atoms: _291  and  _294
REMARK  121  A    between atoms: _294  and  _295
REMARK  122  A    between atoms: _301  and  _303
REMARK  123  A    between atoms: _303  and  _304
REMARK  124  A    between atoms: _303  and  _306
REMARK  125  A    between atoms: _308  and  _310
REMARK  126  A    between atoms: _310  and  _311
REMARK  127  A    between atoms: _310  and  _313
REMARK  128  A    between atoms: _313  and  _314
REMARK  129  A    between atoms: _314  and  _315
REMARK  130  A    between atoms: _315  and  _316
REMARK  131  A    between atoms: _316  and  _317
REMARK  132  A    between atoms: _321  and  _323
REMARK  133  A    between atoms: _323  and  _324
REMARK  134  A    between atoms: _323  and  _326
REMARK  135  A    between atoms: _326  and  _327
REMARK  136  A    between atoms: _330  and  _332
REMARK  137  A    between atoms: _332  and  _333
REMARK  138  A    between atoms: _332  and  _335
REMARK  139  A    between atoms: _335  and  _336
REMARK  140  A    between atoms: _336  and  _337
REMARK  141  A    between atoms: _337  and  _338
REMARK  142  A    between atoms: _347  and  _349
REMARK  143  A    between atoms: _349  and  _350
REMARK  144  A    between atoms: _349  and  _352
REMARK  145  A    between atoms: _352  and  _353
REMARK  146  A    between atoms: _356  and  _358
REMARK  147  A    between atoms: _358  and  _359
REMARK  148  A    between atoms: _358  and  _361
REMARK  149  A    between atoms: _361  and  _362
REMARK  150  A    between atoms: _362  and  _363
REMARK  151  A    between atoms: _363  and  _364
REMARK  152  A    between atoms: _364  and  _365
REMARK  153  A    between atoms: _369  and  _371
REMARK  154  A    between atoms: _371  and  _372
REMARK  155  A    between atoms: _371  and  _374
REMARK  156  A    between atoms: _374  and  _375
REMARK  157  A    between atoms: _378  and  _380
REMARK  158  A    between atoms: _380  and  _381
REMARK  159  A    between atoms: _380  and  _383
REMARK  160  A    between atoms: _383  and  _384
REMARK  161  A    between atoms: _384  and  _385
REMARK  162  A    between atoms: _385  and  MG_421
REMARK  163  A    between atoms: _387  and  _389
REMARK  164  A    between atoms: _389  and  _390
REMARK  165  A    between atoms: _389  and  _392
REMARK  166  A    between atoms: _392  and  _393
REMARK  167  A    between atoms: _393  and  _394
REMARK  168  A    between atoms: _394  and  _395
REMARK  169  A    between atoms: _404  and  _406
REMARK  170  A    between atoms: _406  and  _407
REMARK  171  A    between atoms: _410  and  _412
REMARK  172  A    between atoms: _412  and  _413
REMARK  173  A    between atoms: _412  and  _415
REMARK  174  A    between atoms: _415  and  _416
REMARK                            x       y       z     vdW  Elec       q    Type
REMARK                         _______ _______ _______ _____ _____    ______ ____
ROOT
ATOM      1  O   HOH     1      10.176  37.495  32.103  0.00  0.00    +0.000 OA
ENDROOT
TORSDOF 0
REMARK  Name = ../refined-set-2016/1q91/1q91_pocket.pdb
REMARK  174 active torsions:
REMARK  status: ('A' for Active; 'I' for Inactive)
REMARK    1  A    between atoms: _1  and  _3
REMARK    2  A    between atoms: _3  and  _4
REMARK    3  A    between atoms: _3  and  _6
REMARK    4  A    between atoms: _6  and  _7
REMARK    5  A    between atoms: _10  and  _12
REMARK    6  A    between atoms: _12  and  _13
REMARK    7  A    between atoms: _12  and  _15
REMARK    8  A    between atoms: _15  and  _16
REMARK    9  A    between atoms: _16  and  _17
REMARK   10  A    between atoms: _19  and  _21
REMARK   11  A    between atoms: _21  and  _22
REMARK   12  A    between atoms: _21  and  _24
REMARK   13  A    between atoms: _22  and  _23
REMARK   14  A    between atoms: _22  and  _28
REMARK   15  A    between atoms: _23  and  MG_421
REMARK   16  A    between atoms: _24  and  _25
REMARK   17  A    between atoms: _28  and  _30
REMARK   18  A    between atoms: _30  and  _31
REMARK   19  A    between atoms: _33  and  _35
REMARK   20  A    between atoms: _35  and  _36
REMARK   21  A    between atoms: _35  and  _38
REMARK   22  A    between atoms: _38  and  _39
REMARK   23  A    between atoms: _45  and  _47
REMARK   24  A    between atoms: _47  and  _48
REMARK   25  A    between atoms: _47  and  _50
REMARK   26  A    between atoms: _50  and  _51
REMARK   27  A    between atoms: _51  and  _52
REMARK   28  A    between atoms: _55  and  _57
REMARK   29  A    between atoms: _57  and  _58
REMARK   30  A    between atoms: _57  and  _60
REMARK   31  A    between atoms: _60  and  _61
REMARK   32  A    between atoms: _67  and  _69
REMARK   33  A    between atoms: _69  and  _70
REMARK   34  A    between atoms: _69  and  _72
REMARK   35  A    between atoms: _72  and  _73
REMARK   36  A    between atoms: _73  and  _74
REMARK   37  A    between atoms: _74  and  _75
REMARK   38  A    between atoms: _84  and  _86
REMARK   39  A    between atoms: _86  and  _87
REMARK   40  A    between atoms: _89  and  _91
REMARK   41  A    between atoms: _91  and  _92
REMARK   42  A    between atoms: _91  and  _94
REMARK   43  A    between atoms: _94  and  _95
REMARK   44  A    between atoms: _101  and  _103
REMARK   45  A    between atoms: _103  and  _104
REMARK   46  A    between atoms: _103  and  _106
REMARK   47  A    between atoms: _106  and  _107
REMARK   48  A    between atoms: _117  and  _119
REMARK   49  A    between atoms: _119  and  _120
REMARK   50  A    between atoms: _119  and  _122
REMARK   51  A    between atoms: _125  and  _127
REMARK   52  A    between atoms: _127  and  _128
REMARK   53  A    between atoms: _127  and  _130
REMARK   54  A    between atoms: _130  and  _131
REMARK   55  A    between atoms: _133  and  _135
REMARK   56  A    between atoms: _135  and  _136
REMARK   57  A    between atoms: _135  and  _138
REMARK   58  A    between atoms: _138  and  _139
REMARK   59  A    between atoms: _139  and  _140
REMARK   60  A    between atoms: _143  and  _145
REMARK   61  A    between atoms: _145  and  _146
REMARK   62  A    between atoms: _145  and  _148
REMARK   63  A    between atoms: _148  and  _149
REMARK   64  A    between atoms: _149  and  _150
REMARK   65  A    between atoms: _155  and  _157
REMARK   66  A    between atoms: _157  and  _158
REMARK   67  A    between atoms: _157  and  _160
REMARK   68  A    between atoms: _160  and  _161
REMARK   69  A    between atoms: _166  and  _167
REMARK   70  A    between atoms: _169  and  _171
REMARK   71  A    between atoms: _171  and  _172
REMARK   72  A    between atoms: _175  and  _177
REMARK   73  A    between atoms: _177  and  _178
REMARK   74  A    between atoms: _177  and  _180
REMARK   75  A    between atoms: _180  and  _181
REMARK   76  A    between atoms: _184  and  _186
REMARK   77  A    between atoms: _186  and  _187
REMARK   78  A    between atoms: _186  and  _189
REMARK   79  A    between atoms: _189  and  _190
REMARK   80  A    between atoms: _200  and  _202
REMARK   81  A    between atoms: _202  and  _203
REMARK   82  A    between atoms: _202  and  _205
REMARK   83  A    between atoms: _205  and  _206
REMARK   84  A    between atoms: _206  and  _207
REMARK   85  A    between atoms: _210  and  _212
REMARK   86  A    between atoms: _212  and  _213
REMARK   87  A    between atoms: _212  and  _215
REMARK   88  A    between atoms: _215  and  _216
REMARK   89  A    between atoms: _222  and  _224
REMARK   90  A    between atoms: _224  and  _225
REMARK   91  A    between atoms: _224  and  _227
REMARK   92  A    between atoms: _227  and  _228
REMARK   93  A    between atoms: _234  and  _236
REMARK   94  A    between atoms: _236  and  _237
REMARK   95  A    between atoms: _236  and  _239
REMARK   96  A    between atoms: _239  and  _240
REMARK   97  A    between atoms: _243  and  _245
REMARK   98  A    between atoms: _245  and  _246
REMARK   99  A    between atoms: _245  and  _248
REMARK  100  A    between atoms: _248  and  _249
REMARK  101  A    between atoms: _252  and  _253
REMARK  102  A    between atoms: _258  and  _260
REMARK  103  A    between atoms: _260  and  _261
REMARK  104  A    between atoms: _260  and  _263
REMARK  105  A    between atoms: _263  and  _264
REMARK  106  A    between atoms: _267  and  _269
REMARK  107  A    between atoms: _269  and  _270
REMARK  108  A    between atoms: _269  and  _272
REMARK  109  A    between atoms: _272  and  _273
REMARK  110  A    between atoms: _273  and  _274
REMARK  111  A    between atoms: _274  and  _275
REMARK  112  A    between atoms: _275  and  _276
REMARK  113  A    between atoms: _280  and  _282
REMARK  114  A    between atoms: _282  and  _283
REMARK  115  A    between atoms: _282  and  _285
REMARK  116  A    between atoms: _285  and  _286
REMARK  117  A    between atoms: _286  and  _287
REMARK  118  A    between atoms: _289  and  _291
REMARK  119  A    between atoms: _291  and  _292
REMARK  120  A    between atoms: _291  and  _294
REMARK  121  A    between atoms: _294  and  _295
REMARK  122  A    between atoms: _301  and  _303
REMARK  123  A    between atoms: _303  and  _304
REMARK  124  A    between atoms: _303  and  _306
REMARK  125  A    between atoms: _308  and  _310
REMARK  126  A    between atoms: _310  and  _311
REMARK  127  A    between atoms: _310  and  _313
REMARK  128  A    between atoms: _313  and  _314
REMARK  129  A    between atoms: _314  and  _315
REMARK  130  A    between atoms: _315  and  _316
REMARK  131  A    between atoms: _316  and  _317
REMARK  132  A    between atoms: _321  and  _323
REMARK  133  A    between atoms: _323  and  _324
REMARK  134  A    between atoms: _323  and  _326
REMARK  135  A    between atoms: _326  and  _327
REMARK  136  A    between atoms: _330  and  _332
REMARK  137  A    between atoms: _332  and  _333
REMARK  138  A    between atoms: _332  and  _335
REMARK  139  A    between atoms: _335  and  _336
REMARK  140  A    between atoms: _336  and  _337
REMARK  141  A    between atoms: _337  and  _338
REMARK  142  A    between atoms: _347  and  _349
REMARK  143  A    between atoms: _349  and  _350
REMARK  144  A    between atoms: _349  and  _352
REMARK  145  A    between atoms: _352  and  _353
REMARK  146  A    between atoms: _356  and  _358
REMARK  147  A    between atoms: _358  and  _359
REMARK  148  A    between atoms: _358  and  _361
REMARK  149  A    between atoms: _361  and  _362
REMARK  150  A    between atoms: _362  and  _363
REMARK  151  A    between atoms: _363  and  _364
REMARK  152  A    between atoms: _364  and  _365
REMARK  153  A    between atoms: _369  and  _371
REMARK  154  A    between atoms: _371  and  _372
REMARK  155  A    between atoms: _371  and  _374
REMARK  156  A    between atoms: _374  and  _375
REMARK  157  A    between atoms: _378  and  _380
REMARK  158  A    between atoms: _380  and  _381
REMARK  159  A    between atoms: _380  and  _383
REMARK  160  A    between atoms: _383  and  _384
REMARK  161  A    between atoms: _384  and  _385
REMARK  162  A    between atoms: _385  and  MG_421
REMARK  163  A    between atoms: _387  and  _389
REMARK  164  A    between atoms: _389  and  _390
REMARK  165  A    between atoms: _389  and  _392
REMARK  166  A    between atoms: _392  and  _393
REMARK  167  A    between atoms: _393  and  _394
REMARK  168  A    between atoms: _394  and  _395
REMARK  169  A    between atoms: _404  and  _406
REMARK  170  A    between atoms: _406  and  _407
REMARK  171  A    between atoms: _410  and  _412
REMARK  172  A    between atoms: _412  and  _413
REMARK  173  A    between atoms: _412  and  _415
REMARK  174  A    between atoms: _415  and  _416
REMARK                            x       y       z     vdW  Elec       q    Type
REMARK                         _______ _______ _______ _____ _____    ______ ____
ROOT
ATOM      1  O   HOH     1      13.843  38.060  31.341  0.00  0.00    +0.000 OA
ENDROOT
TORSDOF 0
REMARK  Name = ../refined-set-2016/1q91/1q91_pocket.pdb
REMARK  174 active torsions:
REMARK  status: ('A' for Active; 'I' for Inactive)
REMARK    1  A    between atoms: _1  and  _3
REMARK    2  A    between atoms: _3  and  _4
REMARK    3  A    between atoms: _3  and  _6
REMARK    4  A    between atoms: _6  and  _7
REMARK    5  A    between atoms: _10  and  _12
REMARK    6  A    between atoms: _12  and  _13
REMARK    7  A    between atoms: _12  and  _15
REMARK    8  A    between atoms: _15  and  _16
REMARK    9  A    between atoms: _16  and  _17
REMARK   10  A    between atoms: _19  and  _21
REMARK   11  A    between atoms: _21  and  _22
REMARK   12  A    between atoms: _21  and  _24
REMARK   13  A    between atoms: _22  and  _23
REMARK   14  A    between atoms: _22  and  _28
REMARK   15  A    between atoms: _23  and  MG_421
REMARK   16  A    between atoms: _24  and  _25
REMARK   17  A    between atoms: _28  and  _30
REMARK   18  A    between atoms: _30  and  _31
REMARK   19  A    between atoms: _33  and  _35
REMARK   20  A    between atoms: _35  and  _36
REMARK   21  A    between atoms: _35  and  _38
REMARK   22  A    between atoms: _38  and  _39
REMARK   23  A    between atoms: _45  and  _47
REMARK   24  A    between atoms: _47  and  _48
REMARK   25  A    between atoms: _47  and  _50
REMARK   26  A    between atoms: _50  and  _51
REMARK   27  A    between atoms: _51  and  _52
REMARK   28  A    between atoms: _55  and  _57
REMARK   29  A    between atoms: _57  and  _58
REMARK   30  A    between atoms: _57  and  _60
REMARK   31  A    between atoms: _60  and  _61
REMARK   32  A    between atoms: _67  and  _69
REMARK   33  A    between atoms: _69  and  _70
REMARK   34  A    between atoms: _69  and  _72
REMARK   35  A    between atoms: _72  and  _73
REMARK   36  A    between atoms: _73  and  _74
REMARK   37  A    between atoms: _74  and  _75
REMARK   38  A    between atoms: _84  and  _86
REMARK   39  A    between atoms: _86  and  _87
REMARK   40  A    between atoms: _89  and  _91
REMARK   41  A    between atoms: _91  and  _92
REMARK   42  A    between atoms: _91  and  _94
REMARK   43  A    between atoms: _94  and  _95
REMARK   44  A    between atoms: _101  and  _103
REMARK   45  A    between atoms: _103  and  _104
REMARK   46  A    between atoms: _103  and  _106
REMARK   47  A    between atoms: _106  and  _107
REMARK   48  A    between atoms: _117  and  _119
REMARK   49  A    between atoms: _119  and  _120
REMARK   50  A    between atoms: _119  and  _122
REMARK   51  A    between atoms: _125  and  _127
REMARK   52  A    between atoms: _127  and  _128
REMARK   53  A    between atoms: _127  and  _130
REMARK   54  A    between atoms: _130  and  _131
REMARK   55  A    between atoms: _133  and  _135
REMARK   56  A    between atoms: _135  and  _136
REMARK   57  A    between atoms: _135  and  _138
REMARK   58  A    between atoms: _138  and  _139
REMARK   59  A    between atoms: _139  and  _140
REMARK   60  A    between atoms: _143  and  _145
REMARK   61  A    between atoms: _145  and  _146
REMARK   62  A    between atoms: _145  and  _148
REMARK   63  A    between atoms: _148  and  _149
REMARK   64  A    between atoms: _149  and  _150
REMARK   65  A    between atoms: _155  and  _157
REMARK   66  A    between atoms: _157  and  _158
REMARK   67  A    between atoms: _157  and  _160
REMARK   68  A    between atoms: _160  and  _161
REMARK   69  A    between atoms: _166  and  _167
REMARK   70  A    between atoms: _169  and  _171
REMARK   71  A    between atoms: _171  and  _172
REMARK   72  A    between atoms: _175  and  _177
REMARK   73  A    between atoms: _177  and  _178
REMARK   74  A    between atoms: _177  and  _180
REMARK   75  A    between atoms: _180  and  _181
REMARK   76  A    between atoms: _184  and  _186
REMARK   77  A    between atoms: _186  and  _187
REMARK   78  A    between atoms: _186  and  _189
REMARK   79  A    between atoms: _189  and  _190
REMARK   80  A    between atoms: _200  and  _202
REMARK   81  A    between atoms: _202  and  _203
REMARK   82  A    between atoms: _202  and  _205
REMARK   83  A    between atoms: _205  and  _206
REMARK   84  A    between atoms: _206  and  _207
REMARK   85  A    between atoms: _210  and  _212
REMARK   86  A    between atoms: _212  and  _213
REMARK   87  A    between atoms: _212  and  _215
REMARK   88  A    between atoms: _215  and  _216
REMARK   89  A    between atoms: _222  and  _224
REMARK   90  A    between atoms: _224  and  _225
REMARK   91  A    between atoms: _224  and  _227
REMARK   92  A    between atoms: _227  and  _228
REMARK   93  A    between atoms: _234  and  _236
REMARK   94  A    between atoms: _236  and  _237
REMARK   95  A    between atoms: _236  and  _239
REMARK   96  A    between atoms: _239  and  _240
REMARK   97  A    between atoms: _243  and  _245
REMARK   98  A    between atoms: _245  and  _246
REMARK   99  A    between atoms: _245  and  _248
REMARK  100  A    between atoms: _248  and  _249
REMARK  101  A    between atoms: _252  and  _253
REMARK  102  A    between atoms: _258  and  _260
REMARK  103  A    between atoms: _260  and  _261
REMARK  104  A    between atoms: _260  and  _263
REMARK  105  A    between atoms: _263  and  _264
REMARK  106  A    between atoms: _267  and  _269
REMARK  107  A    between atoms: _269  and  _270
REMARK  108  A    between atoms: _269  and  _272
REMARK  109  A    between atoms: _272  and  _273
REMARK  110  A    between atoms: _273  and  _274
REMARK  111  A    between atoms: _274  and  _275
REMARK  112  A    between atoms: _275  and  _276
REMARK  113  A    between atoms: _280  and  _282
REMARK  114  A    between atoms: _282  and  _283
REMARK  115  A    between atoms: _282  and  _285
REMARK  116  A    between atoms: _285  and  _286
REMARK  117  A    between atoms: _286  and  _287
REMARK  118  A    between atoms: _289  and  _291
REMARK  119  A    between atoms: _291  and  _292
REMARK  120  A    between atoms: _291  and  _294
REMARK  121  A    between atoms: _294  and  _295
REMARK  122  A    between atoms: _301  and  _303
REMARK  123  A    between atoms: _303  and  _304
REMARK  124  A    between atoms: _303  and  _306
REMARK  125  A    between atoms: _308  and  _310
REMARK  126  A    between atoms: _310  and  _311
REMARK  127  A    between atoms: _310  and  _313
REMARK  128  A    between atoms: _313  and  _314
REMARK  129  A    between atoms: _314  and  _315
REMARK  130  A    between atoms: _315  and  _316
REMARK  131  A    between atoms: _316  and  _317
REMARK  132  A    between atoms: _321  and  _323
REMARK  133  A    between atoms: _323  and  _324
REMARK  134  A    between atoms: _323  and  _326
REMARK  135  A    between atoms: _326  and  _327
REMARK  136  A    between atoms: _330  and  _332
REMARK  137  A    between atoms: _332  and  _333
REMARK  138  A    between atoms: _332  and  _335
REMARK  139  A    between atoms: _335  and  _336
REMARK  140  A    between atoms: _336  and  _337
REMARK  141  A    between atoms: _337  and  _338
REMARK  142  A    between atoms: _347  and  _349
REMARK  143  A    between atoms: _349  and  _350
REMARK  144  A    between atoms: _349  and  _352
REMARK  145  A    between atoms: _352  and  _353
REMARK  146  A    between atoms: _356  and  _358
REMARK  147  A    between atoms: _358  and  _359
REMARK  148  A    between atoms: _358  and  _361
REMARK  149  A    between atoms: _361  and  _362
REMARK  150  A    between atoms: _362  and  _363
REMARK  151  A    between atoms: _363  and  _364
REMARK  152  A    between atoms: _364  and  _365
REMARK  153  A    between atoms: _369  and  _371
REMARK  154  A    between atoms: _371  and  _372
REMARK  155  A    between atoms: _371  and  _374
REMARK  156  A    between atoms: _374  and  _375
REMARK  157  A    between atoms: _378  and  _380
REMARK  158  A    between atoms: _380  and  _381
REMARK  159  A    between atoms: _380  and  _383
REMARK  160  A    between atoms: _383  and  _384
REMARK  161  A    between atoms: _384  and  _385
REMARK  162  A    between atoms: _385  and  MG_421
REMARK  163  A    between atoms: _387  and  _389
REMARK  164  A    between atoms: _389  and  _390
REMARK  165  A    between atoms: _389  and  _392
REMARK  166  A    between atoms: _392  and  _393
REMARK  167  A    between atoms: _393  and  _394
REMARK  168  A    between atoms: _394  and  _395
REMARK  169  A    between atoms: _404  and  _406
REMARK  170  A    between atoms: _406  and  _407
REMARK  171  A    between atoms: _410  and  _412
REMARK  172  A    between atoms: _412  and  _413
REMARK  173  A    between atoms: _412  and  _415
REMARK  174  A    between atoms: _415  and  _416
REMARK                            x       y       z     vdW  Elec       q    Type
REMARK                         _______ _______ _______ _____ _____    ______ ____
ROOT
ATOM      1  O   HOH     1      12.014  39.426  18.909  0.00  0.00    +0.000 OA
ENDROOT
TORSDOF 0
REMARK  Name = ../refined-set-2016/1q91/1q91_pocket.pdb
REMARK  174 active torsions:
REMARK  status: ('A' for Active; 'I' for Inactive)
REMARK    1  A    between atoms: _1  and  _3
REMARK    2  A    between atoms: _3  and  _4
REMARK    3  A    between atoms: _3  and  _6
REMARK    4  A    between atoms: _6  and  _7
REMARK    5  A    between atoms: _10  and  _12
REMARK    6  A    between atoms: _12  and  _13
REMARK    7  A    between atoms: _12  and  _15
REMARK    8  A    between atoms: _15  and  _16
REMARK    9  A    between atoms: _16  and  _17
REMARK   10  A    between atoms: _19  and  _21
REMARK   11  A    between atoms: _21  and  _22
REMARK   12  A    between atoms: _21  and  _24
REMARK   13  A    between atoms: _22  and  _23
REMARK   14  A    between atoms: _22  and  _28
REMARK   15  A    between atoms: _23  and  MG_421
REMARK   16  A    between atoms: _24  and  _25
REMARK   17  A    between atoms: _28  and  _30
REMARK   18  A    between atoms: _30  and  _31
REMARK   19  A    between atoms: _33  and  _35
REMARK   20  A    between atoms: _35  and  _36
REMARK   21  A    between atoms: _35  and  _38
REMARK   22  A    between atoms: _38  and  _39
REMARK   23  A    between atoms: _45  and  _47
REMARK   24  A    between atoms: _47  and  _48
REMARK   25  A    between atoms: _47  and  _50
REMARK   26  A    between atoms: _50  and  _51
REMARK   27  A    between atoms: _51  and  _52
REMARK   28  A    between atoms: _55  and  _57
REMARK   29  A    between atoms: _57  and  _58
REMARK   30  A    between atoms: _57  and  _60
REMARK   31  A    between atoms: _60  and  _61
REMARK   32  A    between atoms: _67  and  _69
REMARK   33  A    between atoms: _69  and  _70
REMARK   34  A    between atoms: _69  and  _72
REMARK   35  A    between atoms: _72  and  _73
REMARK   36  A    between atoms: _73  and  _74
REMARK   37  A    between atoms: _74  and  _75
REMARK   38  A    between atoms: _84  and  _86
REMARK   39  A    between atoms: _86  and  _87
REMARK   40  A    between atoms: _89  and  _91
REMARK   41  A    between atoms: _91  and  _92
REMARK   42  A    between atoms: _91  and  _94
REMARK   43  A    between atoms: _94  and  _95
REMARK   44  A    between atoms: _101  and  _103
REMARK   45  A    between atoms: _103  and  _104
REMARK   46  A    between atoms: _103  and  _106
REMARK   47  A    between atoms: _106  and  _107
REMARK   48  A    between atoms: _117  and  _119
REMARK   49  A    between atoms: _119  and  _120
REMARK   50  A    between atoms: _119  and  _122
REMARK   51  A    between atoms: _125  and  _127
REMARK   52  A    between atoms: _127  and  _128
REMARK   53  A    between atoms: _127  and  _130
REMARK   54  A    between atoms: _130  and  _131
REMARK   55  A    between atoms: _133  and  _135
REMARK   56  A    between atoms: _135  and  _136
REMARK   57  A    between atoms: _135  and  _138
REMARK   58  A    between atoms: _138  and  _139
REMARK   59  A    between atoms: _139  and  _140
REMARK   60  A    between atoms: _143  and  _145
REMARK   61  A    between atoms: _145  and  _146
REMARK   62  A    between atoms: _145  and  _148
REMARK   63  A    between atoms: _148  and  _149
REMARK   64  A    between atoms: _149  and  _150
REMARK   65  A    between atoms: _155  and  _157
REMARK   66  A    between atoms: _157  and  _158
REMARK   67  A    between atoms: _157  and  _160
REMARK   68  A    between atoms: _160  and  _161
REMARK   69  A    between atoms: _166  and  _167
REMARK   70  A    between atoms: _169  and  _171
REMARK   71  A    between atoms: _171  and  _172
REMARK   72  A    between atoms: _175  and  _177
REMARK   73  A    between atoms: _177  and  _178
REMARK   74  A    between atoms: _177  and  _180
REMARK   75  A    between atoms: _180  and  _181
REMARK   76  A    between atoms: _184  and  _186
REMARK   77  A    between atoms: _186  and  _187
REMARK   78  A    between atoms: _186  and  _189
REMARK   79  A    between atoms: _189  and  _190
REMARK   80  A    between atoms: _200  and  _202
REMARK   81  A    between atoms: _202  and  _203
REMARK   82  A    between atoms: _202  and  _205
REMARK   83  A    between atoms: _205  and  _206
REMARK   84  A    between atoms: _206  and  _207
REMARK   85  A    between atoms: _210  and  _212
REMARK   86  A    between atoms: _212  and  _213
REMARK   87  A    between atoms: _212  and  _215
REMARK   88  A    between atoms: _215  and  _216
REMARK   89  A    between atoms: _222  and  _224
REMARK   90  A    between atoms: _224  and  _225
REMARK   91  A    between atoms: _224  and  _227
REMARK   92  A    between atoms: _227  and  _228
REMARK   93  A    between atoms: _234  and  _236
REMARK   94  A    between atoms: _236  and  _237
REMARK   95  A    between atoms: _236  and  _239
REMARK   96  A    between atoms: _239  and  _240
REMARK   97  A    between atoms: _243  and  _245
REMARK   98  A    between atoms: _245  and  _246
REMARK   99  A    between atoms: _245  and  _248
REMARK  100  A    between atoms: _248  and  _249
REMARK  101  A    between atoms: _252  and  _253
REMARK  102  A    between atoms: _258  and  _260
REMARK  103  A    between atoms: _260  and  _261
REMARK  104  A    between atoms: _260  and  _263
REMARK  105  A    between atoms: _263  and  _264
REMARK  106  A    between atoms: _267  and  _269
REMARK  107  A    between atoms: _269  and  _270
REMARK  108  A    between atoms: _269  and  _272
REMARK  109  A    between atoms: _272  and  _273
REMARK  110  A    between atoms: _273  and  _274
REMARK  111  A    between atoms: _274  and  _275
REMARK  112  A    between atoms: _275  and  _276
REMARK  113  A    between atoms: _280  and  _282
REMARK  114  A    between atoms: _282  and  _283
REMARK  115  A    between atoms: _282  and  _285
REMARK  116  A    between atoms: _285  and  _286
REMARK  117  A    between atoms: _286  and  _287
REMARK  118  A    between atoms: _289  and  _291
REMARK  119  A    between atoms: _291  and  _292
REMARK  120  A    between atoms: _291  and  _294
REMARK  121  A    between atoms: _294  and  _295
REMARK  122  A    between atoms: _301  and  _303
REMARK  123  A    between atoms: _303  and  _304
REMARK  124  A    between atoms: _303  and  _306
REMARK  125  A    between atoms: _308  and  _310
REMARK  126  A    between atoms: _310  and  _311
REMARK  127  A    between atoms: _310  and  _313
REMARK  128  A    between atoms: _313  and  _314
REMARK  129  A    between atoms: _314  and  _315
REMARK  130  A    between atoms: _315  and  _316
REMARK  131  A    between atoms: _316  and  _317
REMARK  132  A    between atoms: _321  and  _323
REMARK  133  A    between atoms: _323  and  _324
REMARK  134  A    between atoms: _323  and  _326
REMARK  135  A    between atoms: _326  and  _327
REMARK  136  A    between atoms: _330  and  _332
REMARK  137  A    between atoms: _332  and  _333
REMARK  138  A    between atoms: _332  and  _335
REMARK  139  A    between atoms: _335  and  _336
REMARK  140  A    between atoms: _336  and  _337
REMARK  141  A    between atoms: _337  and  _338
REMARK  142  A    between atoms: _347  and  _349
REMARK  143  A    between atoms: _349  and  _350
REMARK  144  A    between atoms: _349  and  _352
REMARK  145  A    between atoms: _352  and  _353
REMARK  146  A    between atoms: _356  and  _358
REMARK  147  A    between atoms: _358  and  _359
REMARK  148  A    between atoms: _358  and  _361
REMARK  149  A    between atoms: _361  and  _362
REMARK  150  A    between atoms: _362  and  _363
REMARK  151  A    between atoms: _363  and  _364
REMARK  152  A    between atoms: _364  and  _365
REMARK  153  A    between atoms: _369  and  _371
REMARK  154  A    between atoms: _371  and  _372
REMARK  155  A    between atoms: _371  and  _374
REMARK  156  A    between atoms: _374  and  _375
REMARK  157  A    between atoms: _378  and  _380
REMARK  158  A    between atoms: _380  and  _381
REMARK  159  A    between atoms: _380  and  _383
REMARK  160  A    between atoms: _383  and  _384
REMARK  161  A    between atoms: _384  and  _385
REMARK  162  A    between atoms: _385  and  MG_421
REMARK  163  A    between atoms: _387  and  _389
REMARK  164  A    between atoms: _389  and  _390
REMARK  165  A    between atoms: _389  and  _392
REMARK  166  A    between atoms: _392  and  _393
REMARK  167  A    between atoms: _393  and  _394
REMARK  168  A    between atoms: _394  and  _395
REMARK  169  A    between atoms: _404  and  _406
REMARK  170  A    between atoms: _406  and  _407
REMARK  171  A    between atoms: _410  and  _412
REMARK  172  A    between atoms: _412  and  _413
REMARK  173  A    between atoms: _412  and  _415
REMARK  174  A    between atoms: _415  and  _416
REMARK                            x       y       z     vdW  Elec       q    Type
REMARK                         _______ _______ _______ _____ _____    ______ ____
ROOT
ATOM      1  O   HOH     1       8.011  43.329  21.174  0.00  0.00    +0.000 OA
ENDROOT
TORSDOF 0
REMARK  Name = ../refined-set-2016/1q91/1q91_pocket.pdb
REMARK  174 active torsions:
REMARK  status: ('A' for Active; 'I' for Inactive)
REMARK    1  A    between atoms: _1  and  _3
REMARK    2  A    between atoms: _3  and  _4
REMARK    3  A    between atoms: _3  and  _6
REMARK    4  A    between atoms: _6  and  _7
REMARK    5  A    between atoms: _10  and  _12
REMARK    6  A    between atoms: _12  and  _13
REMARK    7  A    between atoms: _12  and  _15
REMARK    8  A    between atoms: _15  and  _16
REMARK    9  A    between atoms: _16  and  _17
REMARK   10  A    between atoms: _19  and  _21
REMARK   11  A    between atoms: _21  and  _22
REMARK   12  A    between atoms: _21  and  _24
REMARK   13  A    between atoms: _22  and  _23
REMARK   14  A    between atoms: _22  and  _28
REMARK   15  A    between atoms: _23  and  MG_421
REMARK   16  A    between atoms: _24  and  _25
REMARK   17  A    between atoms: _28  and  _30
REMARK   18  A    between atoms: _30  and  _31
REMARK   19  A    between atoms: _33  and  _35
REMARK   20  A    between atoms: _35  and  _36
REMARK   21  A    between atoms: _35  and  _38
REMARK   22  A    between atoms: _38  and  _39
REMARK   23  A    between atoms: _45  and  _47
REMARK   24  A    between atoms: _47  and  _48
REMARK   25  A    between atoms: _47  and  _50
REMARK   26  A    between atoms: _50  and  _51
REMARK   27  A    between atoms: _51  and  _52
REMARK   28  A    between atoms: _55  and  _57
REMARK   29  A    between atoms: _57  and  _58
REMARK   30  A    between atoms: _57  and  _60
REMARK   31  A    between atoms: _60  and  _61
REMARK   32  A    between atoms: _67  and  _69
REMARK   33  A    between atoms: _69  and  _70
REMARK   34  A    between atoms: _69  and  _72
REMARK   35  A    between atoms: _72  and  _73
REMARK   36  A    between atoms: _73  and  _74
REMARK   37  A    between atoms: _74  and  _75
REMARK   38  A    between atoms: _84  and  _86
REMARK   39  A    between atoms: _86  and  _87
REMARK   40  A    between atoms: _89  and  _91
REMARK   41  A    between atoms: _91  and  _92
REMARK   42  A    between atoms: _91  and  _94
REMARK   43  A    between atoms: _94  and  _95
REMARK   44  A    between atoms: _101  and  _103
REMARK   45  A    between atoms: _103  and  _104
REMARK   46  A    between atoms: _103  and  _106
REMARK   47  A    between atoms: _106  and  _107
REMARK   48  A    between atoms: _117  and  _119
REMARK   49  A    between atoms: _119  and  _120
REMARK   50  A    between atoms: _119  and  _122
REMARK   51  A    between atoms: _125  and  _127
REMARK   52  A    between atoms: _127  and  _128
REMARK   53  A    between atoms: _127  and  _130
REMARK   54  A    between atoms: _130  and  _131
REMARK   55  A    between atoms: _133  and  _135
REMARK   56  A    between atoms: _135  and  _136
REMARK   57  A    between atoms: _135  and  _138
REMARK   58  A    between atoms: _138  and  _139
REMARK   59  A    between atoms: _139  and  _140
REMARK   60  A    between atoms: _143  and  _145
REMARK   61  A    between atoms: _145  and  _146
REMARK   62  A    between atoms: _145  and  _148
REMARK   63  A    between atoms: _148  and  _149
REMARK   64  A    between atoms: _149  and  _150
REMARK   65  A    between atoms: _155  and  _157
REMARK   66  A    between atoms: _157  and  _158
REMARK   67  A    between atoms: _157  and  _160
REMARK   68  A    between atoms: _160  and  _161
REMARK   69  A    between atoms: _166  and  _167
REMARK   70  A    between atoms: _169  and  _171
REMARK   71  A    between atoms: _171  and  _172
REMARK   72  A    between atoms: _175  and  _177
REMARK   73  A    between atoms: _177  and  _178
REMARK   74  A    between atoms: _177  and  _180
REMARK   75  A    between atoms: _180  and  _181
REMARK   76  A    between atoms: _184  and  _186
REMARK   77  A    between atoms: _186  and  _187
REMARK   78  A    between atoms: _186  and  _189
REMARK   79  A    between atoms: _189  and  _190
REMARK   80  A    between atoms: _200  and  _202
REMARK   81  A    between atoms: _202  and  _203
REMARK   82  A    between atoms: _202  and  _205
REMARK   83  A    between atoms: _205  and  _206
REMARK   84  A    between atoms: _206  and  _207
REMARK   85  A    between atoms: _210  and  _212
REMARK   86  A    between atoms: _212  and  _213
REMARK   87  A    between atoms: _212  and  _215
REMARK   88  A    between atoms: _215  and  _216
REMARK   89  A    between atoms: _222  and  _224
REMARK   90  A    between atoms: _224  and  _225
REMARK   91  A    between atoms: _224  and  _227
REMARK   92  A    between atoms: _227  and  _228
REMARK   93  A    between atoms: _234  and  _236
REMARK   94  A    between atoms: _236  and  _237
REMARK   95  A    between atoms: _236  and  _239
REMARK   96  A    between atoms: _239  and  _240
REMARK   97  A    between atoms: _243  and  _245
REMARK   98  A    between atoms: _245  and  _246
REMARK   99  A    between atoms: _245  and  _248
REMARK  100  A    between atoms: _248  and  _249
REMARK  101  A    between atoms: _252  and  _253
REMARK  102  A    between atoms: _258  and  _260
REMARK  103  A    between atoms: _260  and  _261
REMARK  104  A    between atoms: _260  and  _263
REMARK  105  A    between atoms: _263  and  _264
REMARK  106  A    between atoms: _267  and  _269
REMARK  107  A    between atoms: _269  and  _270
REMARK  108  A    between atoms: _269  and  _272
REMARK  109  A    between atoms: _272  and  _273
REMARK  110  A    between atoms: _273  and  _274
REMARK  111  A    between atoms: _274  and  _275
REMARK  112  A    between atoms: _275  and  _276
REMARK  113  A    between atoms: _280  and  _282
REMARK  114  A    between atoms: _282  and  _283
REMARK  115  A    between atoms: _282  and  _285
REMARK  116  A    between atoms: _285  and  _286
REMARK  117  A    between atoms: _286  and  _287
REMARK  118  A    between atoms: _289  and  _291
REMARK  119  A    between atoms: _291  and  _292
REMARK  120  A    between atoms: _291  and  _294
REMARK  121  A    between atoms: _294  and  _295
REMARK  122  A    between atoms: _301  and  _303
REMARK  123  A    between atoms: _303  and  _304
REMARK  124  A    between atoms: _303  and  _306
REMARK  125  A    between atoms: _308  and  _310
REMARK  126  A    between atoms: _310  and  _311
REMARK  127  A    between atoms: _310  and  _313
REMARK  128  A    between atoms: _313  and  _314
REMARK  129  A    between atoms: _314  and  _315
REMARK  130  A    between atoms: _315  and  _316
REMARK  131  A    between atoms: _316  and  _317
REMARK  132  A    between atoms: _321  and  _323
REMARK  133  A    between atoms: _323  and  _324
REMARK  134  A    between atoms: _323  and  _326
REMARK  135  A    between atoms: _326  and  _327
REMARK  136  A    between atoms: _330  and  _332
REMARK  137  A    between atoms: _332  and  _333
REMARK  138  A    between atoms: _332  and  _335
REMARK  139  A    between atoms: _335  and  _336
REMARK  140  A    between atoms: _336  and  _337
REMARK  141  A    between atoms: _337  and  _338
REMARK  142  A    between atoms: _347  and  _349
REMARK  143  A    between atoms: _349  and  _350
REMARK  144  A    between atoms: _349  and  _352
REMARK  145  A    between atoms: _352  and  _353
REMARK  146  A    between atoms: _356  and  _358
REMARK  147  A    between atoms: _358  and  _359
REMARK  148  A    between atoms: _358  and  _361
REMARK  149  A    between atoms: _361  and  _362
REMARK  150  A    between atoms: _362  and  _363
REMARK  151  A    between atoms: _363  and  _364
REMARK  152  A    between atoms: _364  and  _365
REMARK  153  A    between atoms: _369  and  _371
REMARK  154  A    between atoms: _371  and  _372
REMARK  155  A    between atoms: _371  and  _374
REMARK  156  A    between atoms: _374  and  _375
REMARK  157  A    between atoms: _378  and  _380
REMARK  158  A    between atoms: _380  and  _381
REMARK  159  A    between atoms: _380  and  _383
REMARK  160  A    between atoms: _383  and  _384
REMARK  161  A    between atoms: _384  and  _385
REMARK  162  A    between atoms: _385  and  MG_421
REMARK  163  A    between atoms: _387  and  _389
REMARK  164  A    between atoms: _389  and  _390
REMARK  165  A    between atoms: _389  and  _392
REMARK  166  A    between atoms: _392  and  _393
REMARK  167  A    between atoms: _393  and  _394
REMARK  168  A    between atoms: _394  and  _395
REMARK  169  A    between atoms: _404  and  _406
REMARK  170  A    between atoms: _406  and  _407
REMARK  171  A    between atoms: _410  and  _412
REMARK  172  A    between atoms: _412  and  _413
REMARK  173  A    between atoms: _412  and  _415
REMARK  174  A    between atoms: _415  and  _416
REMARK                            x       y       z     vdW  Elec       q    Type
REMARK                         _______ _______ _______ _____ _____    ______ ____
ROOT
ATOM      1  O   HOH     1       9.651  36.108  30.120  0.00  0.00    +0.000 OA
ENDROOT
TORSDOF 0
