REMARK  Name = ../refined-set-2016/2jke/2jke_pocket.pdb
REMARK  172 active torsions:
REMARK  status: ('A' for Active; 'I' for Inactive)
REMARK    1  A    between atoms: _1  and  _3
REMARK    2  A    between atoms: _3  and  _4
REMARK    3  A    between atoms: _3  and  _6
REMARK    4  A    between atoms: _6  and  _7
REMARK    5  A    between atoms: _7  and  _8
REMARK    6  A    between atoms: _11  and  _13
REMARK    7  A    between atoms: _13  and  _14
REMARK    8  A    between atoms: _13  and  _16
REMARK    9  A    between atoms: _16  and  _17
REMARK   10  A    between atoms: _22  and  _24
REMARK   11  A    between atoms: _24  and  _25
REMARK   12  A    between atoms: _24  and  _27
REMARK   13  A    between atoms: _27  and  _28
REMARK   14  A    between atoms: _33  and  _34
REMARK   15  A    between atoms: _36  and  _38
REMARK   16  A    between atoms: _38  and  _39
REMARK   17  A    between atoms: _38  and  _41
REMARK   18  A    between atoms: _44  and  _46
REMARK   19  A    between atoms: _46  and  _47
REMARK   20  A    between atoms: _46  and  _49
REMARK   21  A    between atoms: _49  and  _50
REMARK   22  A    between atoms: _60  and  _62
REMARK   23  A    between atoms: _62  and  _63
REMARK   24  A    between atoms: _62  and  _65
REMARK   25  A    between atoms: _65  and  _66
REMARK   26  A    between atoms: _76  and  _78
REMARK   27  A    between atoms: _78  and  _79
REMARK   28  A    between atoms: _78  and  _81
REMARK   29  A    between atoms: _81  and  _82
REMARK   30  A    between atoms: _82  and  _83
REMARK   31  A    between atoms: _85  and  _87
REMARK   32  A    between atoms: _87  and  _88
REMARK   33  A    between atoms: _87  and  _90
REMARK   34  A    between atoms: _90  and  _91
REMARK   35  A    between atoms: _94  and  _96
REMARK   36  A    between atoms: _96  and  _97
REMARK   37  A    between atoms: _96  and  _99
REMARK   38  A    between atoms: _99  and  _100
REMARK   39  A    between atoms: _110  and  _112
REMARK   40  A    between atoms: _112  and  _113
REMARK   41  A    between atoms: _112  and  _115
REMARK   42  A    between atoms: _115  and  _116
REMARK   43  A    between atoms: _119  and  _121
REMARK   44  A    between atoms: _121  and  _122
REMARK   45  A    between atoms: _121  and  _124
REMARK   46  A    between atoms: _124  and  _125
REMARK   47  A    between atoms: _125  and  _126
REMARK   48  A    between atoms: _129  and  _131
REMARK   49  A    between atoms: _131  and  _132
REMARK   50  A    between atoms: _134  and  _136
REMARK   51  A    between atoms: _136  and  _137
REMARK   52  A    between atoms: _136  and  _139
REMARK   53  A    between atoms: _139  and  _140
REMARK   54  A    between atoms: _150  and  _152
REMARK   55  A    between atoms: _152  and  _153
REMARK   56  A    between atoms: _152  and  _155
REMARK   57  A    between atoms: _155  and  _156
REMARK   58  A    between atoms: _166  and  _168
REMARK   59  A    between atoms: _168  and  _169
REMARK   60  A    between atoms: _168  and  _171
REMARK   61  A    between atoms: _171  and  _172
REMARK   62  A    between atoms: _178  and  _180
REMARK   63  A    between atoms: _180  and  _181
REMARK   64  A    between atoms: _180  and  _183
REMARK   65  A    between atoms: _183  and  _184
REMARK   66  A    between atoms: _190  and  _192
REMARK   67  A    between atoms: _192  and  _193
REMARK   68  A    between atoms: _192  and  _195
REMARK   69  A    between atoms: _195  and  _196
REMARK   70  A    between atoms: _201  and  _203
REMARK   71  A    between atoms: _203  and  _204
REMARK   72  A    between atoms: _203  and  _206
REMARK   73  A    between atoms: _206  and  _207
REMARK   74  A    between atoms: _212  and  _214
REMARK   75  A    between atoms: _214  and  _215
REMARK   76  A    between atoms: _214  and  _217
REMARK   77  A    between atoms: _217  and  _218
REMARK   78  A    between atoms: _218  and  _219
REMARK   79  A    between atoms: _222  and  _224
REMARK   80  A    between atoms: _224  and  _225
REMARK   81  A    between atoms: _224  and  _227
REMARK   82  A    between atoms: _227  and  _228
REMARK   83  A    between atoms: _231  and  _233
REMARK   84  A    between atoms: _233  and  _234
REMARK   85  A    between atoms: _233  and  _236
REMARK   86  A    between atoms: _236  and  _237
REMARK   87  A    between atoms: _239  and  _241
REMARK   88  A    between atoms: _241  and  _242
REMARK   89  A    between atoms: _241  and  _244
REMARK   90  A    between atoms: _244  and  _245
REMARK   91  A    between atoms: _245  and  _246
REMARK   92  A    between atoms: _246  and  _247
REMARK   93  A    between atoms: _247  and  _248
REMARK   94  A    between atoms: _252  and  _254
REMARK   95  A    between atoms: _254  and  _255
REMARK   96  A    between atoms: _254  and  _257
REMARK   97  A    between atoms: _257  and  _258
REMARK   98  A    between atoms: _260  and  _262
REMARK   99  A    between atoms: _262  and  _263
REMARK  100  A    between atoms: _265  and  _267
REMARK  101  A    between atoms: _267  and  _268
REMARK  102  A    between atoms: _267  and  _270
REMARK  103  A    between atoms: _270  and  _271
REMARK  104  A    between atoms: _276  and  _277
REMARK  105  A    between atoms: _279  and  _281
REMARK  106  A    between atoms: _281  and  _282
REMARK  107  A    between atoms: _281  and  _284
REMARK  108  A    between atoms: _287  and  _289
REMARK  109  A    between atoms: _289  and  _290
REMARK  110  A    between atoms: _292  and  _294
REMARK  111  A    between atoms: _294  and  _295
REMARK  112  A    between atoms: _294  and  _297
REMARK  113  A    between atoms: _297  and  _298
REMARK  114  A    between atoms: _303  and  _305
REMARK  115  A    between atoms: _305  and  _306
REMARK  116  A    between atoms: _309  and  _311
REMARK  117  A    between atoms: _311  and  _312
REMARK  118  A    between atoms: _311  and  _314
REMARK  119  A    between atoms: _314  and  _315
REMARK  120  A    between atoms: _320  and  _322
REMARK  121  A    between atoms: _322  and  _323
REMARK  122  A    between atoms: _322  and  _325
REMARK  123  A    between atoms: _325  and  _326
REMARK  124  A    between atoms: _326  and  _327
REMARK  125  A    between atoms: _327  and  _329
REMARK  126  A    between atoms: _329  and  CA_431
REMARK  127  A    between atoms: _330  and  _332
REMARK  128  A    between atoms: _332  and  _333
REMARK  129  A    between atoms: _332  and  _335
REMARK  130  A    between atoms: _335  and  _336
REMARK  131  A    between atoms: _336  and  _337
REMARK  132  A    between atoms: _337  and  _338
REMARK  133  A    between atoms: _338  and  CA_431
REMARK  134  A    between atoms: _340  and  _342
REMARK  135  A    between atoms: _342  and  _343
REMARK  136  A    between atoms: _342  and  _345
REMARK  137  A    between atoms: _345  and  _346
REMARK  138  A    between atoms: _348  and  _350
REMARK  139  A    between atoms: _350  and  _351
REMARK  140  A    between atoms: _354  and  _356
REMARK  141  A    between atoms: _356  and  _357
REMARK  142  A    between atoms: _359  and  _361
REMARK  143  A    between atoms: _361  and  _362
REMARK  144  A    between atoms: _361  and  _364
REMARK  145  A    between atoms: _364  and  _365
REMARK  146  A    between atoms: _368  and  _370
REMARK  147  A    between atoms: _370  and  _371
REMARK  148  A    between atoms: _370  and  _373
REMARK  149  A    between atoms: _373  and  _374
REMARK  150  A    between atoms: _374  and  _375
REMARK  151  A    between atoms: _378  and  _380
REMARK  152  A    between atoms: _380  and  _381
REMARK  153  A    between atoms: _380  and  _383
REMARK  154  A    between atoms: _383  and  _384
REMARK  155  A    between atoms: _389  and  _390
REMARK  156  A    between atoms: _392  and  _394
REMARK  157  A    between atoms: _394  and  _395
REMARK  158  A    between atoms: _394  and  _397
REMARK  159  A    between atoms: _397  and  _398
REMARK  160  A    between atoms: _404  and  _406
REMARK  161  A    between atoms: _406  and  _407
REMARK  162  A    between atoms: _406  and  _409
REMARK  163  A    between atoms: _409  and  _410
REMARK  164  A    between atoms: _413  and  _415
REMARK  165  A    between atoms: _415  and  _416
REMARK  166  A    between atoms: _415  and  _418
REMARK  167  A    between atoms: _418  and  _419
REMARK  168  A    between atoms: _422  and  _424
REMARK  169  A    between atoms: _424  and  _425
REMARK  170  A    between atoms: _424  and  _427
REMARK  171  A    between atoms: _427  and  _428
REMARK  172  A    between atoms: _428  and  _429
REMARK                            x       y       z     vdW  Elec       q    Type
REMARK                         _______ _______ _______ _____ _____    ______ ____
ROOT
ATOM      1  CA  GLU A   1      18.671  51.824  73.462  0.00  0.00    +0.134 C 
ENDROOT
BRANCH   1   2
ATOM      2  N   GLU A   1      17.320  51.953  72.864  0.00  0.00    -0.239 NA
ATOM      3  H   GLU A   1      17.232  52.099  71.838  0.00  0.00    +0.142 HD
ENDBRANCH   1   2
BRANCH   1   4
ATOM      4  C   GLU A   1      19.160  53.103  74.124  0.00  0.00    +0.224 C 
ATOM      5  O   GLU A   1      20.318  53.522  73.929  0.00  0.00    -0.287 OA
ENDBRANCH   1   4
BRANCH   1   6
ATOM      6  CB  GLU A   1      19.664  51.354  72.384  0.00  0.00    +0.037 C 
BRANCH   6   7
ATOM      7  CG  GLU A   1      19.442  49.900  72.017  0.00  0.00    +0.116 C 
BRANCH   7   8
ATOM      8  CD  GLU A   1      20.445  49.420  70.976  0.00  0.00    +0.365 C 
ATOM      9  OE2 GLU A   1      20.390  48.154  70.907  0.00  0.00    -0.246 OA
ATOM     10  OE1 GLU A   1      21.178  50.212  70.352  0.00  0.00    -0.246 OA
ENDBRANCH   7   8
ENDBRANCH   6   7
ENDBRANCH   1   6
TORSDOF 5
REMARK  Name = ../refined-set-2016/2jke/2jke_pocket.pdb
REMARK  172 active torsions:
REMARK  status: ('A' for Active; 'I' for Inactive)
REMARK    1  A    between atoms: _1  and  _3
REMARK    2  A    between atoms: _3  and  _4
REMARK    3  A    between atoms: _3  and  _6
REMARK    4  A    between atoms: _6  and  _7
REMARK    5  A    between atoms: _7  and  _8
REMARK    6  A    between atoms: _11  and  _13
REMARK    7  A    between atoms: _13  and  _14
REMARK    8  A    between atoms: _13  and  _16
REMARK    9  A    between atoms: _16  and  _17
REMARK   10  A    between atoms: _22  and  _24
REMARK   11  A    between atoms: _24  and  _25
REMARK   12  A    between atoms: _24  and  _27
REMARK   13  A    between atoms: _27  and  _28
REMARK   14  A    between atoms: _33  and  _34
REMARK   15  A    between atoms: _36  and  _38
REMARK   16  A    between atoms: _38  and  _39
REMARK   17  A    between atoms: _38  and  _41
REMARK   18  A    between atoms: _44  and  _46
REMARK   19  A    between atoms: _46  and  _47
REMARK   20  A    between atoms: _46  and  _49
REMARK   21  A    between atoms: _49  and  _50
REMARK   22  A    between atoms: _60  and  _62
REMARK   23  A    between atoms: _62  and  _63
REMARK   24  A    between atoms: _62  and  _65
REMARK   25  A    between atoms: _65  and  _66
REMARK   26  A    between atoms: _76  and  _78
REMARK   27  A    between atoms: _78  and  _79
REMARK   28  A    between atoms: _78  and  _81
REMARK   29  A    between atoms: _81  and  _82
REMARK   30  A    between atoms: _82  and  _83
REMARK   31  A    between atoms: _85  and  _87
REMARK   32  A    between atoms: _87  and  _88
REMARK   33  A    between atoms: _87  and  _90
REMARK   34  A    between atoms: _90  and  _91
REMARK   35  A    between atoms: _94  and  _96
REMARK   36  A    between atoms: _96  and  _97
REMARK   37  A    between atoms: _96  and  _99
REMARK   38  A    between atoms: _99  and  _100
REMARK   39  A    between atoms: _110  and  _112
REMARK   40  A    between atoms: _112  and  _113
REMARK   41  A    between atoms: _112  and  _115
REMARK   42  A    between atoms: _115  and  _116
REMARK   43  A    between atoms: _119  and  _121
REMARK   44  A    between atoms: _121  and  _122
REMARK   45  A    between atoms: _121  and  _124
REMARK   46  A    between atoms: _124  and  _125
REMARK   47  A    between atoms: _125  and  _126
REMARK   48  A    between atoms: _129  and  _131
REMARK   49  A    between atoms: _131  and  _132
REMARK   50  A    between atoms: _134  and  _136
REMARK   51  A    between atoms: _136  and  _137
REMARK   52  A    between atoms: _136  and  _139
REMARK   53  A    between atoms: _139  and  _140
REMARK   54  A    between atoms: _150  and  _152
REMARK   55  A    between atoms: _152  and  _153
REMARK   56  A    between atoms: _152  and  _155
REMARK   57  A    between atoms: _155  and  _156
REMARK   58  A    between atoms: _166  and  _168
REMARK   59  A    between atoms: _168  and  _169
REMARK   60  A    between atoms: _168  and  _171
REMARK   61  A    between atoms: _171  and  _172
REMARK   62  A    between atoms: _178  and  _180
REMARK   63  A    between atoms: _180  and  _181
REMARK   64  A    between atoms: _180  and  _183
REMARK   65  A    between atoms: _183  and  _184
REMARK   66  A    between atoms: _190  and  _192
REMARK   67  A    between atoms: _192  and  _193
REMARK   68  A    between atoms: _192  and  _195
REMARK   69  A    between atoms: _195  and  _196
REMARK   70  A    between atoms: _201  and  _203
REMARK   71  A    between atoms: _203  and  _204
REMARK   72  A    between atoms: _203  and  _206
REMARK   73  A    between atoms: _206  and  _207
REMARK   74  A    between atoms: _212  and  _214
REMARK   75  A    between atoms: _214  and  _215
REMARK   76  A    between atoms: _214  and  _217
REMARK   77  A    between atoms: _217  and  _218
REMARK   78  A    between atoms: _218  and  _219
REMARK   79  A    between atoms: _222  and  _224
REMARK   80  A    between atoms: _224  and  _225
REMARK   81  A    between atoms: _224  and  _227
REMARK   82  A    between atoms: _227  and  _228
REMARK   83  A    between atoms: _231  and  _233
REMARK   84  A    between atoms: _233  and  _234
REMARK   85  A    between atoms: _233  and  _236
REMARK   86  A    between atoms: _236  and  _237
REMARK   87  A    between atoms: _239  and  _241
REMARK   88  A    between atoms: _241  and  _242
REMARK   89  A    between atoms: _241  and  _244
REMARK   90  A    between atoms: _244  and  _245
REMARK   91  A    between atoms: _245  and  _246
REMARK   92  A    between atoms: _246  and  _247
REMARK   93  A    between atoms: _247  and  _248
REMARK   94  A    between atoms: _252  and  _254
REMARK   95  A    between atoms: _254  and  _255
REMARK   96  A    between atoms: _254  and  _257
REMARK   97  A    between atoms: _257  and  _258
REMARK   98  A    between atoms: _260  and  _262
REMARK   99  A    between atoms: _262  and  _263
REMARK  100  A    between atoms: _265  and  _267
REMARK  101  A    between atoms: _267  and  _268
REMARK  102  A    between atoms: _267  and  _270
REMARK  103  A    between atoms: _270  and  _271
REMARK  104  A    between atoms: _276  and  _277
REMARK  105  A    between atoms: _279  and  _281
REMARK  106  A    between atoms: _281  and  _282
REMARK  107  A    between atoms: _281  and  _284
REMARK  108  A    between atoms: _287  and  _289
REMARK  109  A    between atoms: _289  and  _290
REMARK  110  A    between atoms: _292  and  _294
REMARK  111  A    between atoms: _294  and  _295
REMARK  112  A    between atoms: _294  and  _297
REMARK  113  A    between atoms: _297  and  _298
REMARK  114  A    between atoms: _303  and  _305
REMARK  115  A    between atoms: _305  and  _306
REMARK  116  A    between atoms: _309  and  _311
REMARK  117  A    between atoms: _311  and  _312
REMARK  118  A    between atoms: _311  and  _314
REMARK  119  A    between atoms: _314  and  _315
REMARK  120  A    between atoms: _320  and  _322
REMARK  121  A    between atoms: _322  and  _323
REMARK  122  A    between atoms: _322  and  _325
REMARK  123  A    between atoms: _325  and  _326
REMARK  124  A    between atoms: _326  and  _327
REMARK  125  A    between atoms: _327  and  _329
REMARK  126  A    between atoms: _329  and  CA_431
REMARK  127  A    between atoms: _330  and  _332
REMARK  128  A    between atoms: _332  and  _333
REMARK  129  A    between atoms: _332  and  _335
REMARK  130  A    between atoms: _335  and  _336
REMARK  131  A    between atoms: _336  and  _337
REMARK  132  A    between atoms: _337  and  _338
REMARK  133  A    between atoms: _338  and  CA_431
REMARK  134  A    between atoms: _340  and  _342
REMARK  135  A    between atoms: _342  and  _343
REMARK  136  A    between atoms: _342  and  _345
REMARK  137  A    between atoms: _345  and  _346
REMARK  138  A    between atoms: _348  and  _350
REMARK  139  A    between atoms: _350  and  _351
REMARK  140  A    between atoms: _354  and  _356
REMARK  141  A    between atoms: _356  and  _357
REMARK  142  A    between atoms: _359  and  _361
REMARK  143  A    between atoms: _361  and  _362
REMARK  144  A    between atoms: _361  and  _364
REMARK  145  A    between atoms: _364  and  _365
REMARK  146  A    between atoms: _368  and  _370
REMARK  147  A    between atoms: _370  and  _371
REMARK  148  A    between atoms: _370  and  _373
REMARK  149  A    between atoms: _373  and  _374
REMARK  150  A    between atoms: _374  and  _375
REMARK  151  A    between atoms: _378  and  _380
REMARK  152  A    between atoms: _380  and  _381
REMARK  153  A    between atoms: _380  and  _383
REMARK  154  A    between atoms: _383  and  _384
REMARK  155  A    between atoms: _389  and  _390
REMARK  156  A    between atoms: _392  and  _394
REMARK  157  A    between atoms: _394  and  _395
REMARK  158  A    between atoms: _394  and  _397
REMARK  159  A    between atoms: _397  and  _398
REMARK  160  A    between atoms: _404  and  _406
REMARK  161  A    between atoms: _406  and  _407
REMARK  162  A    between atoms: _406  and  _409
REMARK  163  A    between atoms: _409  and  _410
REMARK  164  A    between atoms: _413  and  _415
REMARK  165  A    between atoms: _415  and  _416
REMARK  166  A    between atoms: _415  and  _418
REMARK  167  A    between atoms: _418  and  _419
REMARK  168  A    between atoms: _422  and  _424
REMARK  169  A    between atoms: _424  and  _425
REMARK  170  A    between atoms: _424  and  _427
REMARK  171  A    between atoms: _427  and  _428
REMARK  172  A    between atoms: _428  and  _429
REMARK                            x       y       z     vdW  Elec       q    Type
REMARK                         _______ _______ _______ _____ _____    ______ ____
ROOT
ATOM      1  CB  ASN A   1      20.711  54.876  68.045  0.00  0.00    +0.110 C 
ENDROOT
BRANCH   1   2
ATOM      2  CG  ASN A   1      20.555  53.358  68.007  0.00  0.00    +0.221 C 
ATOM      3  ND2 ASN A   1      20.787  52.688  69.159  0.00  0.00    -0.329 N 
ATOM      4 HD21 ASN A   1      21.063  53.208  70.016  0.00  0.00    +0.145 HD
ATOM      5 HD22 ASN A   1      20.689  51.653  69.187  0.00  0.00    +0.145 HD
ATOM      6  OD1 ASN A   1      20.222  52.782  66.954  0.00  0.00    -0.275 OA
ENDBRANCH   1   2
BRANCH   1   7
ATOM      7  CA  ASN A   1      22.003  55.365  67.339  0.00  0.00    +0.142 C 
BRANCH   7   8
ATOM      8  N   ASN A   1      22.219  56.791  67.592  0.00  0.00    -0.239 NA
ATOM      9  H   ASN A   1      21.816  57.491  66.936  0.00  0.00    +0.142 HD
ENDBRANCH   7   8
BRANCH   7  10
ATOM     10  C   ASN A   1      21.927  55.134  65.829  0.00  0.00    +0.225 C 
ATOM     11  O   ASN A   1      21.495  56.044  65.116  0.00  0.00    -0.287 OA
ENDBRANCH   7  10
ENDBRANCH   1   7
TORSDOF 4
REMARK  Name = ../refined-set-2016/2jke/2jke_pocket.pdb
REMARK  172 active torsions:
REMARK  status: ('A' for Active; 'I' for Inactive)
REMARK    1  A    between atoms: _1  and  _3
REMARK    2  A    between atoms: _3  and  _4
REMARK    3  A    between atoms: _3  and  _6
REMARK    4  A    between atoms: _6  and  _7
REMARK    5  A    between atoms: _7  and  _8
REMARK    6  A    between atoms: _11  and  _13
REMARK    7  A    between atoms: _13  and  _14
REMARK    8  A    between atoms: _13  and  _16
REMARK    9  A    between atoms: _16  and  _17
REMARK   10  A    between atoms: _22  and  _24
REMARK   11  A    between atoms: _24  and  _25
REMARK   12  A    between atoms: _24  and  _27
REMARK   13  A    between atoms: _27  and  _28
REMARK   14  A    between atoms: _33  and  _34
REMARK   15  A    between atoms: _36  and  _38
REMARK   16  A    between atoms: _38  and  _39
REMARK   17  A    between atoms: _38  and  _41
REMARK   18  A    between atoms: _44  and  _46
REMARK   19  A    between atoms: _46  and  _47
REMARK   20  A    between atoms: _46  and  _49
REMARK   21  A    between atoms: _49  and  _50
REMARK   22  A    between atoms: _60  and  _62
REMARK   23  A    between atoms: _62  and  _63
REMARK   24  A    between atoms: _62  and  _65
REMARK   25  A    between atoms: _65  and  _66
REMARK   26  A    between atoms: _76  and  _78
REMARK   27  A    between atoms: _78  and  _79
REMARK   28  A    between atoms: _78  and  _81
REMARK   29  A    between atoms: _81  and  _82
REMARK   30  A    between atoms: _82  and  _83
REMARK   31  A    between atoms: _85  and  _87
REMARK   32  A    between atoms: _87  and  _88
REMARK   33  A    between atoms: _87  and  _90
REMARK   34  A    between atoms: _90  and  _91
REMARK   35  A    between atoms: _94  and  _96
REMARK   36  A    between atoms: _96  and  _97
REMARK   37  A    between atoms: _96  and  _99
REMARK   38  A    between atoms: _99  and  _100
REMARK   39  A    between atoms: _110  and  _112
REMARK   40  A    between atoms: _112  and  _113
REMARK   41  A    between atoms: _112  and  _115
REMARK   42  A    between atoms: _115  and  _116
REMARK   43  A    between atoms: _119  and  _121
REMARK   44  A    between atoms: _121  and  _122
REMARK   45  A    between atoms: _121  and  _124
REMARK   46  A    between atoms: _124  and  _125
REMARK   47  A    between atoms: _125  and  _126
REMARK   48  A    between atoms: _129  and  _131
REMARK   49  A    between atoms: _131  and  _132
REMARK   50  A    between atoms: _134  and  _136
REMARK   51  A    between atoms: _136  and  _137
REMARK   52  A    between atoms: _136  and  _139
REMARK   53  A    between atoms: _139  and  _140
REMARK   54  A    between atoms: _150  and  _152
REMARK   55  A    between atoms: _152  and  _153
REMARK   56  A    between atoms: _152  and  _155
REMARK   57  A    between atoms: _155  and  _156
REMARK   58  A    between atoms: _166  and  _168
REMARK   59  A    between atoms: _168  and  _169
REMARK   60  A    between atoms: _168  and  _171
REMARK   61  A    between atoms: _171  and  _172
REMARK   62  A    between atoms: _178  and  _180
REMARK   63  A    between atoms: _180  and  _181
REMARK   64  A    between atoms: _180  and  _183
REMARK   65  A    between atoms: _183  and  _184
REMARK   66  A    between atoms: _190  and  _192
REMARK   67  A    between atoms: _192  and  _193
REMARK   68  A    between atoms: _192  and  _195
REMARK   69  A    between atoms: _195  and  _196
REMARK   70  A    between atoms: _201  and  _203
REMARK   71  A    between atoms: _203  and  _204
REMARK   72  A    between atoms: _203  and  _206
REMARK   73  A    between atoms: _206  and  _207
REMARK   74  A    between atoms: _212  and  _214
REMARK   75  A    between atoms: _214  and  _215
REMARK   76  A    between atoms: _214  and  _217
REMARK   77  A    between atoms: _217  and  _218
REMARK   78  A    between atoms: _218  and  _219
REMARK   79  A    between atoms: _222  and  _224
REMARK   80  A    between atoms: _224  and  _225
REMARK   81  A    between atoms: _224  and  _227
REMARK   82  A    between atoms: _227  and  _228
REMARK   83  A    between atoms: _231  and  _233
REMARK   84  A    between atoms: _233  and  _234
REMARK   85  A    between atoms: _233  and  _236
REMARK   86  A    between atoms: _236  and  _237
REMARK   87  A    between atoms: _239  and  _241
REMARK   88  A    between atoms: _241  and  _242
REMARK   89  A    between atoms: _241  and  _244
REMARK   90  A    between atoms: _244  and  _245
REMARK   91  A    between atoms: _245  and  _246
REMARK   92  A    between atoms: _246  and  _247
REMARK   93  A    between atoms: _247  and  _248
REMARK   94  A    between atoms: _252  and  _254
REMARK   95  A    between atoms: _254  and  _255
REMARK   96  A    between atoms: _254  and  _257
REMARK   97  A    between atoms: _257  and  _258
REMARK   98  A    between atoms: _260  and  _262
REMARK   99  A    between atoms: _262  and  _263
REMARK  100  A    between atoms: _265  and  _267
REMARK  101  A    between atoms: _267  and  _268
REMARK  102  A    between atoms: _267  and  _270
REMARK  103  A    between atoms: _270  and  _271
REMARK  104  A    between atoms: _276  and  _277
REMARK  105  A    between atoms: _279  and  _281
REMARK  106  A    between atoms: _281  and  _282
REMARK  107  A    between atoms: _281  and  _284
REMARK  108  A    between atoms: _287  and  _289
REMARK  109  A    between atoms: _289  and  _290
REMARK  110  A    between atoms: _292  and  _294
REMARK  111  A    between atoms: _294  and  _295
REMARK  112  A    between atoms: _294  and  _297
REMARK  113  A    between atoms: _297  and  _298
REMARK  114  A    between atoms: _303  and  _305
REMARK  115  A    between atoms: _305  and  _306
REMARK  116  A    between atoms: _309  and  _311
REMARK  117  A    between atoms: _311  and  _312
REMARK  118  A    between atoms: _311  and  _314
REMARK  119  A    between atoms: _314  and  _315
REMARK  120  A    between atoms: _320  and  _322
REMARK  121  A    between atoms: _322  and  _323
REMARK  122  A    between atoms: _322  and  _325
REMARK  123  A    between atoms: _325  and  _326
REMARK  124  A    between atoms: _326  and  _327
REMARK  125  A    between atoms: _327  and  _329
REMARK  126  A    between atoms: _329  and  CA_431
REMARK  127  A    between atoms: _330  and  _332
REMARK  128  A    between atoms: _332  and  _333
REMARK  129  A    between atoms: _332  and  _335
REMARK  130  A    between atoms: _335  and  _336
REMARK  131  A    between atoms: _336  and  _337
REMARK  132  A    between atoms: _337  and  _338
REMARK  133  A    between atoms: _338  and  CA_431
REMARK  134  A    between atoms: _340  and  _342
REMARK  135  A    between atoms: _342  and  _343
REMARK  136  A    between atoms: _342  and  _345
REMARK  137  A    between atoms: _345  and  _346
REMARK  138  A    between atoms: _348  and  _350
REMARK  139  A    between atoms: _350  and  _351
REMARK  140  A    between atoms: _354  and  _356
REMARK  141  A    between atoms: _356  and  _357
REMARK  142  A    between atoms: _359  and  _361
REMARK  143  A    between atoms: _361  and  _362
REMARK  144  A    between atoms: _361  and  _364
REMARK  145  A    between atoms: _364  and  _365
REMARK  146  A    between atoms: _368  and  _370
REMARK  147  A    between atoms: _370  and  _371
REMARK  148  A    between atoms: _370  and  _373
REMARK  149  A    between atoms: _373  and  _374
REMARK  150  A    between atoms: _374  and  _375
REMARK  151  A    between atoms: _378  and  _380
REMARK  152  A    between atoms: _380  and  _381
REMARK  153  A    between atoms: _380  and  _383
REMARK  154  A    between atoms: _383  and  _384
REMARK  155  A    between atoms: _389  and  _390
REMARK  156  A    between atoms: _392  and  _394
REMARK  157  A    between atoms: _394  and  _395
REMARK  158  A    between atoms: _394  and  _397
REMARK  159  A    between atoms: _397  and  _398
REMARK  160  A    between atoms: _404  and  _406
REMARK  161  A    between atoms: _406  and  _407
REMARK  162  A    between atoms: _406  and  _409
REMARK  163  A    between atoms: _409  and  _410
REMARK  164  A    between atoms: _413  and  _415
REMARK  165  A    between atoms: _415  and  _416
REMARK  166  A    between atoms: _415  and  _418
REMARK  167  A    between atoms: _418  and  _419
REMARK  168  A    between atoms: _422  and  _424
REMARK  169  A    between atoms: _424  and  _425
REMARK  170  A    between atoms: _424  and  _427
REMARK  171  A    between atoms: _427  and  _428
REMARK  172  A    between atoms: _428  and  _429
REMARK                            x       y       z     vdW  Elec       q    Type
REMARK                         _______ _______ _______ _____ _____    ______ ____
ROOT
ATOM      1  CG  TYR A   1      23.917  32.219  77.003  0.00  0.00    -0.020 A 
ATOM      2  CD2 TYR A   1      22.831  32.812  77.663  0.00  0.00    -0.001 A 
ATOM      3  CE2 TYR A   1      22.374  34.097  77.289  0.00  0.00    +0.036 A 
ATOM      4  CZ  TYR A   1      23.014  34.771  76.248  0.00  0.00    +0.134 A 
ATOM      5  CE1 TYR A   1      24.093  34.200  75.581  0.00  0.00    +0.036 A 
ATOM      6  CD1 TYR A   1      24.519  32.917  75.961  0.00  0.00    -0.001 A 
ENDROOT
BRANCH   4   7
ATOM      7  OH  TYR A   1      22.605  36.033  75.864  0.00  0.00    -0.506 OA
ATOM      8  HH  TYR A   1      21.660  35.998  75.571  0.00  0.00    +0.292 HD
ENDBRANCH   4   7
BRANCH   1   9
ATOM      9  CB  TYR A   1      24.406  30.800  77.371  0.00  0.00    +0.051 C 
BRANCH   9  10
ATOM     10  CA  TYR A   1      25.120  30.683  78.751  0.00  0.00    +0.137 C 
BRANCH  10  11
ATOM     11  N   TYR A   1      24.150  30.821  79.842  0.00  0.00    -0.239 NA
ATOM     12  H   TYR A   1      23.940  31.754  80.251  0.00  0.00    +0.142 HD
ENDBRANCH  10  11
BRANCH  10  13
ATOM     13  C   TYR A   1      26.283  31.628  78.862  0.00  0.00    +0.224 C 
ATOM     14  O   TYR A   1      26.230  32.627  79.587  0.00  0.00    -0.287 OA
ENDBRANCH  10  13
ENDBRANCH   9  10
ENDBRANCH   1   9
TORSDOF 5
REMARK  Name = ../refined-set-2016/2jke/2jke_pocket.pdb
REMARK  172 active torsions:
REMARK  status: ('A' for Active; 'I' for Inactive)
REMARK    1  A    between atoms: _1  and  _3
REMARK    2  A    between atoms: _3  and  _4
REMARK    3  A    between atoms: _3  and  _6
REMARK    4  A    between atoms: _6  and  _7
REMARK    5  A    between atoms: _7  and  _8
REMARK    6  A    between atoms: _11  and  _13
REMARK    7  A    between atoms: _13  and  _14
REMARK    8  A    between atoms: _13  and  _16
REMARK    9  A    between atoms: _16  and  _17
REMARK   10  A    between atoms: _22  and  _24
REMARK   11  A    between atoms: _24  and  _25
REMARK   12  A    between atoms: _24  and  _27
REMARK   13  A    between atoms: _27  and  _28
REMARK   14  A    between atoms: _33  and  _34
REMARK   15  A    between atoms: _36  and  _38
REMARK   16  A    between atoms: _38  and  _39
REMARK   17  A    between atoms: _38  and  _41
REMARK   18  A    between atoms: _44  and  _46
REMARK   19  A    between atoms: _46  and  _47
REMARK   20  A    between atoms: _46  and  _49
REMARK   21  A    between atoms: _49  and  _50
REMARK   22  A    between atoms: _60  and  _62
REMARK   23  A    between atoms: _62  and  _63
REMARK   24  A    between atoms: _62  and  _65
REMARK   25  A    between atoms: _65  and  _66
REMARK   26  A    between atoms: _76  and  _78
REMARK   27  A    between atoms: _78  and  _79
REMARK   28  A    between atoms: _78  and  _81
REMARK   29  A    between atoms: _81  and  _82
REMARK   30  A    between atoms: _82  and  _83
REMARK   31  A    between atoms: _85  and  _87
REMARK   32  A    between atoms: _87  and  _88
REMARK   33  A    between atoms: _87  and  _90
REMARK   34  A    between atoms: _90  and  _91
REMARK   35  A    between atoms: _94  and  _96
REMARK   36  A    between atoms: _96  and  _97
REMARK   37  A    between atoms: _96  and  _99
REMARK   38  A    between atoms: _99  and  _100
REMARK   39  A    between atoms: _110  and  _112
REMARK   40  A    between atoms: _112  and  _113
REMARK   41  A    between atoms: _112  and  _115
REMARK   42  A    between atoms: _115  and  _116
REMARK   43  A    between atoms: _119  and  _121
REMARK   44  A    between atoms: _121  and  _122
REMARK   45  A    between atoms: _121  and  _124
REMARK   46  A    between atoms: _124  and  _125
REMARK   47  A    between atoms: _125  and  _126
REMARK   48  A    between atoms: _129  and  _131
REMARK   49  A    between atoms: _131  and  _132
REMARK   50  A    between atoms: _134  and  _136
REMARK   51  A    between atoms: _136  and  _137
REMARK   52  A    between atoms: _136  and  _139
REMARK   53  A    between atoms: _139  and  _140
REMARK   54  A    between atoms: _150  and  _152
REMARK   55  A    between atoms: _152  and  _153
REMARK   56  A    between atoms: _152  and  _155
REMARK   57  A    between atoms: _155  and  _156
REMARK   58  A    between atoms: _166  and  _168
REMARK   59  A    between atoms: _168  and  _169
REMARK   60  A    between atoms: _168  and  _171
REMARK   61  A    between atoms: _171  and  _172
REMARK   62  A    between atoms: _178  and  _180
REMARK   63  A    between atoms: _180  and  _181
REMARK   64  A    between atoms: _180  and  _183
REMARK   65  A    between atoms: _183  and  _184
REMARK   66  A    between atoms: _190  and  _192
REMARK   67  A    between atoms: _192  and  _193
REMARK   68  A    between atoms: _192  and  _195
REMARK   69  A    between atoms: _195  and  _196
REMARK   70  A    between atoms: _201  and  _203
REMARK   71  A    between atoms: _203  and  _204
REMARK   72  A    between atoms: _203  and  _206
REMARK   73  A    between atoms: _206  and  _207
REMARK   74  A    between atoms: _212  and  _214
REMARK   75  A    between atoms: _214  and  _215
REMARK   76  A    between atoms: _214  and  _217
REMARK   77  A    between atoms: _217  and  _218
REMARK   78  A    between atoms: _218  and  _219
REMARK   79  A    between atoms: _222  and  _224
REMARK   80  A    between atoms: _224  and  _225
REMARK   81  A    between atoms: _224  and  _227
REMARK   82  A    between atoms: _227  and  _228
REMARK   83  A    between atoms: _231  and  _233
REMARK   84  A    between atoms: _233  and  _234
REMARK   85  A    between atoms: _233  and  _236
REMARK   86  A    between atoms: _236  and  _237
REMARK   87  A    between atoms: _239  and  _241
REMARK   88  A    between atoms: _241  and  _242
REMARK   89  A    between atoms: _241  and  _244
REMARK   90  A    between atoms: _244  and  _245
REMARK   91  A    between atoms: _245  and  _246
REMARK   92  A    between atoms: _246  and  _247
REMARK   93  A    between atoms: _247  and  _248
REMARK   94  A    between atoms: _252  and  _254
REMARK   95  A    between atoms: _254  and  _255
REMARK   96  A    between atoms: _254  and  _257
REMARK   97  A    between atoms: _257  and  _258
REMARK   98  A    between atoms: _260  and  _262
REMARK   99  A    between atoms: _262  and  _263
REMARK  100  A    between atoms: _265  and  _267
REMARK  101  A    between atoms: _267  and  _268
REMARK  102  A    between atoms: _267  and  _270
REMARK  103  A    between atoms: _270  and  _271
REMARK  104  A    between atoms: _276  and  _277
REMARK  105  A    between atoms: _279  and  _281
REMARK  106  A    between atoms: _281  and  _282
REMARK  107  A    between atoms: _281  and  _284
REMARK  108  A    between atoms: _287  and  _289
REMARK  109  A    between atoms: _289  and  _290
REMARK  110  A    between atoms: _292  and  _294
REMARK  111  A    between atoms: _294  and  _295
REMARK  112  A    between atoms: _294  and  _297
REMARK  113  A    between atoms: _297  and  _298
REMARK  114  A    between atoms: _303  and  _305
REMARK  115  A    between atoms: _305  and  _306
REMARK  116  A    between atoms: _309  and  _311
REMARK  117  A    between atoms: _311  and  _312
REMARK  118  A    between atoms: _311  and  _314
REMARK  119  A    between atoms: _314  and  _315
REMARK  120  A    between atoms: _320  and  _322
REMARK  121  A    between atoms: _322  and  _323
REMARK  122  A    between atoms: _322  and  _325
REMARK  123  A    between atoms: _325  and  _326
REMARK  124  A    between atoms: _326  and  _327
REMARK  125  A    between atoms: _327  and  _329
REMARK  126  A    between atoms: _329  and  CA_431
REMARK  127  A    between atoms: _330  and  _332
REMARK  128  A    between atoms: _332  and  _333
REMARK  129  A    between atoms: _332  and  _335
REMARK  130  A    between atoms: _335  and  _336
REMARK  131  A    between atoms: _336  and  _337
REMARK  132  A    between atoms: _337  and  _338
REMARK  133  A    between atoms: _338  and  CA_431
REMARK  134  A    between atoms: _340  and  _342
REMARK  135  A    between atoms: _342  and  _343
REMARK  136  A    between atoms: _342  and  _345
REMARK  137  A    between atoms: _345  and  _346
REMARK  138  A    between atoms: _348  and  _350
REMARK  139  A    between atoms: _350  and  _351
REMARK  140  A    between atoms: _354  and  _356
REMARK  141  A    between atoms: _356  and  _357
REMARK  142  A    between atoms: _359  and  _361
REMARK  143  A    between atoms: _361  and  _362
REMARK  144  A    between atoms: _361  and  _364
REMARK  145  A    between atoms: _364  and  _365
REMARK  146  A    between atoms: _368  and  _370
REMARK  147  A    between atoms: _370  and  _371
REMARK  148  A    between atoms: _370  and  _373
REMARK  149  A    between atoms: _373  and  _374
REMARK  150  A    between atoms: _374  and  _375
REMARK  151  A    between atoms: _378  and  _380
REMARK  152  A    between atoms: _380  and  _381
REMARK  153  A    between atoms: _380  and  _383
REMARK  154  A    between atoms: _383  and  _384
REMARK  155  A    between atoms: _389  and  _390
REMARK  156  A    between atoms: _392  and  _394
REMARK  157  A    between atoms: _394  and  _395
REMARK  158  A    between atoms: _394  and  _397
REMARK  159  A    between atoms: _397  and  _398
REMARK  160  A    between atoms: _404  and  _406
REMARK  161  A    between atoms: _406  and  _407
REMARK  162  A    between atoms: _406  and  _409
REMARK  163  A    between atoms: _409  and  _410
REMARK  164  A    between atoms: _413  and  _415
REMARK  165  A    between atoms: _415  and  _416
REMARK  166  A    between atoms: _415  and  _418
REMARK  167  A    between atoms: _418  and  _419
REMARK  168  A    between atoms: _422  and  _424
REMARK  169  A    between atoms: _424  and  _425
REMARK  170  A    between atoms: _424  and  _427
REMARK  171  A    between atoms: _427  and  _428
REMARK  172  A    between atoms: _428  and  _429
REMARK                            x       y       z     vdW  Elec       q    Type
REMARK                         _______ _______ _______ _____ _____    ______ ____
ROOT
ATOM      1  CA  TRP A   2      30.680  37.964  72.047  0.00  0.00    +0.153 C 
ENDROOT
BRANCH   1   3
ATOM      2  C   VAL A   1      31.274  35.679  71.496  0.00  0.00    +0.238 C 
ATOM      3  N   TRP A   2      31.533  36.798  72.165  0.00  0.00    -0.297 N 
ATOM      4  H   TRP A   2      32.366  36.838  72.787  0.00  0.00    +0.150 HD
ATOM      5  O   VAL A   1      30.429  35.598  70.613  0.00  0.00    -0.274 OA
BRANCH   2   6
ATOM      6  CA  VAL A   1      32.046  34.436  71.936  0.00  0.00    +0.145 C 
BRANCH   6   7
ATOM      7  CB  VAL A   1      32.564  33.607  70.772  0.00  0.00    +0.025 C 
ATOM      8  CG2 VAL A   1      33.192  32.321  71.364  0.00  0.00    +0.002 C 
ATOM      9  CG1 VAL A   1      33.603  34.430  69.965  0.00  0.00    +0.002 C 
ENDBRANCH   6   7
BRANCH   6  10
ATOM     10  N   VAL A   1      31.089  33.656  72.716  0.00  0.00    -0.238 NA
ATOM     11  H   VAL A   1      30.658  32.805  72.301  0.00  0.00    +0.142 HD
ENDBRANCH   6  10
ENDBRANCH   2   6
ENDBRANCH   1   3
BRANCH   1  12
ATOM     12  C   TRP A   2      31.375  39.226  72.563  0.00  0.00    +0.241 C 
ATOM     13  N   TRP A   3      31.768  39.224  73.835  0.00  0.00    -0.298 N 
ATOM     14  H   TRP A   3      31.661  38.366  74.413  0.00  0.00    +0.150 HD
ATOM     15  O   TRP A   2      31.575  40.176  71.820  0.00  0.00    -0.273 OA
BRANCH  13  16
ATOM     16  CA  TRP A   3      32.347  40.424  74.412  0.00  0.00    +0.141 C 
BRANCH  16  17
ATOM     17  C   TRP A   3      33.616  40.837  73.664  0.00  0.00    +0.227 C 
ATOM     18  O   TRP A   3      33.935  42.027  73.584  0.00  0.00    -0.286 OA
ENDBRANCH  16  17
BRANCH  16  19
ATOM     19  CB  TRP A   3      32.586  40.179  75.914  0.00  0.00    +0.056 C 
BRANCH  19  20
ATOM     20  CG  TRP A   3      32.956  41.400  76.815  0.00  0.00    -0.002 A 
ATOM     21  CD1 TRP A   3      34.080  41.509  77.600  0.00  0.00    +0.068 A 
ATOM     22  NE1 TRP A   3      34.060  42.695  78.307  0.00  0.00    -0.352 N 
ATOM     23  HE1 TRP A   3      34.805  43.023  78.954  0.00  0.00    +0.166 HD
ATOM     24  CE2 TRP A   3      32.900  43.372  78.020  0.00  0.00    +0.056 A 
ATOM     25  CZ2 TRP A   3      32.439  44.614  78.491  0.00  0.00    +0.017 A 
ATOM     26  CH2 TRP A   3      31.221  45.052  78.032  0.00  0.00    +0.001 A 
ATOM     27  CZ3 TRP A   3      30.469  44.301  77.090  0.00  0.00    +0.000 A 
ATOM     28  CE3 TRP A   3      30.945  43.081  76.609  0.00  0.00    +0.001 A 
ATOM     29  CD2 TRP A   3      32.172  42.591  77.086  0.00  0.00    +0.013 A 
ENDBRANCH  19  20
ENDBRANCH  16  19
ENDBRANCH  13  16
ENDBRANCH   1  12
BRANCH   1  30
ATOM     30  CB  TRP A   2      29.376  37.702  72.845  0.00  0.00    +0.057 C 
BRANCH  30  31
ATOM     31  CG  TRP A   2      28.462  38.940  72.783  0.00  0.00    -0.002 A 
ATOM     32  CD2 TRP A   2      28.193  39.844  73.856  0.00  0.00    +0.013 A 
ATOM     33  CE3 TRP A   2      28.590  39.892  75.194  0.00  0.00    +0.001 A 
ATOM     34  CZ3 TRP A   2      28.138  40.964  75.992  0.00  0.00    +0.000 A 
ATOM     35  CH2 TRP A   2      27.293  41.962  75.455  0.00  0.00    +0.001 A 
ATOM     36  CZ2 TRP A   2      26.899  41.940  74.135  0.00  0.00    +0.017 A 
ATOM     37  CE2 TRP A   2      27.359  40.885  73.345  0.00  0.00    +0.056 A 
ATOM     38  NE1 TRP A   2      27.148  40.642  72.017  0.00  0.00    -0.352 N 
ATOM     39  HE1 TRP A   2      26.613  41.251  71.365  0.00  0.00    +0.166 HD
ATOM     40  CD1 TRP A   2      27.773  39.436  71.683  0.00  0.00    +0.068 A 
ENDBRANCH  30  31
ENDBRANCH   1  30
TORSDOF 11
REMARK  Name = ../refined-set-2016/2jke/2jke_pocket.pdb
REMARK  172 active torsions:
REMARK  status: ('A' for Active; 'I' for Inactive)
REMARK    1  A    between atoms: _1  and  _3
REMARK    2  A    between atoms: _3  and  _4
REMARK    3  A    between atoms: _3  and  _6
REMARK    4  A    between atoms: _6  and  _7
REMARK    5  A    between atoms: _7  and  _8
REMARK    6  A    between atoms: _11  and  _13
REMARK    7  A    between atoms: _13  and  _14
REMARK    8  A    between atoms: _13  and  _16
REMARK    9  A    between atoms: _16  and  _17
REMARK   10  A    between atoms: _22  and  _24
REMARK   11  A    between atoms: _24  and  _25
REMARK   12  A    between atoms: _24  and  _27
REMARK   13  A    between atoms: _27  and  _28
REMARK   14  A    between atoms: _33  and  _34
REMARK   15  A    between atoms: _36  and  _38
REMARK   16  A    between atoms: _38  and  _39
REMARK   17  A    between atoms: _38  and  _41
REMARK   18  A    between atoms: _44  and  _46
REMARK   19  A    between atoms: _46  and  _47
REMARK   20  A    between atoms: _46  and  _49
REMARK   21  A    between atoms: _49  and  _50
REMARK   22  A    between atoms: _60  and  _62
REMARK   23  A    between atoms: _62  and  _63
REMARK   24  A    between atoms: _62  and  _65
REMARK   25  A    between atoms: _65  and  _66
REMARK   26  A    between atoms: _76  and  _78
REMARK   27  A    between atoms: _78  and  _79
REMARK   28  A    between atoms: _78  and  _81
REMARK   29  A    between atoms: _81  and  _82
REMARK   30  A    between atoms: _82  and  _83
REMARK   31  A    between atoms: _85  and  _87
REMARK   32  A    between atoms: _87  and  _88
REMARK   33  A    between atoms: _87  and  _90
REMARK   34  A    between atoms: _90  and  _91
REMARK   35  A    between atoms: _94  and  _96
REMARK   36  A    between atoms: _96  and  _97
REMARK   37  A    between atoms: _96  and  _99
REMARK   38  A    between atoms: _99  and  _100
REMARK   39  A    between atoms: _110  and  _112
REMARK   40  A    between atoms: _112  and  _113
REMARK   41  A    between atoms: _112  and  _115
REMARK   42  A    between atoms: _115  and  _116
REMARK   43  A    between atoms: _119  and  _121
REMARK   44  A    between atoms: _121  and  _122
REMARK   45  A    between atoms: _121  and  _124
REMARK   46  A    between atoms: _124  and  _125
REMARK   47  A    between atoms: _125  and  _126
REMARK   48  A    between atoms: _129  and  _131
REMARK   49  A    between atoms: _131  and  _132
REMARK   50  A    between atoms: _134  and  _136
REMARK   51  A    between atoms: _136  and  _137
REMARK   52  A    between atoms: _136  and  _139
REMARK   53  A    between atoms: _139  and  _140
REMARK   54  A    between atoms: _150  and  _152
REMARK   55  A    between atoms: _152  and  _153
REMARK   56  A    between atoms: _152  and  _155
REMARK   57  A    between atoms: _155  and  _156
REMARK   58  A    between atoms: _166  and  _168
REMARK   59  A    between atoms: _168  and  _169
REMARK   60  A    between atoms: _168  and  _171
REMARK   61  A    between atoms: _171  and  _172
REMARK   62  A    between atoms: _178  and  _180
REMARK   63  A    between atoms: _180  and  _181
REMARK   64  A    between atoms: _180  and  _183
REMARK   65  A    between atoms: _183  and  _184
REMARK   66  A    between atoms: _190  and  _192
REMARK   67  A    between atoms: _192  and  _193
REMARK   68  A    between atoms: _192  and  _195
REMARK   69  A    between atoms: _195  and  _196
REMARK   70  A    between atoms: _201  and  _203
REMARK   71  A    between atoms: _203  and  _204
REMARK   72  A    between atoms: _203  and  _206
REMARK   73  A    between atoms: _206  and  _207
REMARK   74  A    between atoms: _212  and  _214
REMARK   75  A    between atoms: _214  and  _215
REMARK   76  A    between atoms: _214  and  _217
REMARK   77  A    between atoms: _217  and  _218
REMARK   78  A    between atoms: _218  and  _219
REMARK   79  A    between atoms: _222  and  _224
REMARK   80  A    between atoms: _224  and  _225
REMARK   81  A    between atoms: _224  and  _227
REMARK   82  A    between atoms: _227  and  _228
REMARK   83  A    between atoms: _231  and  _233
REMARK   84  A    between atoms: _233  and  _234
REMARK   85  A    between atoms: _233  and  _236
REMARK   86  A    between atoms: _236  and  _237
REMARK   87  A    between atoms: _239  and  _241
REMARK   88  A    between atoms: _241  and  _242
REMARK   89  A    between atoms: _241  and  _244
REMARK   90  A    between atoms: _244  and  _245
REMARK   91  A    between atoms: _245  and  _246
REMARK   92  A    between atoms: _246  and  _247
REMARK   93  A    between atoms: _247  and  _248
REMARK   94  A    between atoms: _252  and  _254
REMARK   95  A    between atoms: _254  and  _255
REMARK   96  A    between atoms: _254  and  _257
REMARK   97  A    between atoms: _257  and  _258
REMARK   98  A    between atoms: _260  and  _262
REMARK   99  A    between atoms: _262  and  _263
REMARK  100  A    between atoms: _265  and  _267
REMARK  101  A    between atoms: _267  and  _268
REMARK  102  A    between atoms: _267  and  _270
REMARK  103  A    between atoms: _270  and  _271
REMARK  104  A    between atoms: _276  and  _277
REMARK  105  A    between atoms: _279  and  _281
REMARK  106  A    between atoms: _281  and  _282
REMARK  107  A    between atoms: _281  and  _284
REMARK  108  A    between atoms: _287  and  _289
REMARK  109  A    between atoms: _289  and  _290
REMARK  110  A    between atoms: _292  and  _294
REMARK  111  A    between atoms: _294  and  _295
REMARK  112  A    between atoms: _294  and  _297
REMARK  113  A    between atoms: _297  and  _298
REMARK  114  A    between atoms: _303  and  _305
REMARK  115  A    between atoms: _305  and  _306
REMARK  116  A    between atoms: _309  and  _311
REMARK  117  A    between atoms: _311  and  _312
REMARK  118  A    between atoms: _311  and  _314
REMARK  119  A    between atoms: _314  and  _315
REMARK  120  A    between atoms: _320  and  _322
REMARK  121  A    between atoms: _322  and  _323
REMARK  122  A    between atoms: _322  and  _325
REMARK  123  A    between atoms: _325  and  _326
REMARK  124  A    between atoms: _326  and  _327
REMARK  125  A    between atoms: _327  and  _329
REMARK  126  A    between atoms: _329  and  CA_431
REMARK  127  A    between atoms: _330  and  _332
REMARK  128  A    between atoms: _332  and  _333
REMARK  129  A    between atoms: _332  and  _335
REMARK  130  A    between atoms: _335  and  _336
REMARK  131  A    between atoms: _336  and  _337
REMARK  132  A    between atoms: _337  and  _338
REMARK  133  A    between atoms: _338  and  CA_431
REMARK  134  A    between atoms: _340  and  _342
REMARK  135  A    between atoms: _342  and  _343
REMARK  136  A    between atoms: _342  and  _345
REMARK  137  A    between atoms: _345  and  _346
REMARK  138  A    between atoms: _348  and  _350
REMARK  139  A    between atoms: _350  and  _351
REMARK  140  A    between atoms: _354  and  _356
REMARK  141  A    between atoms: _356  and  _357
REMARK  142  A    between atoms: _359  and  _361
REMARK  143  A    between atoms: _361  and  _362
REMARK  144  A    between atoms: _361  and  _364
REMARK  145  A    between atoms: _364  and  _365
REMARK  146  A    between atoms: _368  and  _370
REMARK  147  A    between atoms: _370  and  _371
REMARK  148  A    between atoms: _370  and  _373
REMARK  149  A    between atoms: _373  and  _374
REMARK  150  A    between atoms: _374  and  _375
REMARK  151  A    between atoms: _378  and  _380
REMARK  152  A    between atoms: _380  and  _381
REMARK  153  A    between atoms: _380  and  _383
REMARK  154  A    between atoms: _383  and  _384
REMARK  155  A    between atoms: _389  and  _390
REMARK  156  A    between atoms: _392  and  _394
REMARK  157  A    between atoms: _394  and  _395
REMARK  158  A    between atoms: _394  and  _397
REMARK  159  A    between atoms: _397  and  _398
REMARK  160  A    between atoms: _404  and  _406
REMARK  161  A    between atoms: _406  and  _407
REMARK  162  A    between atoms: _406  and  _409
REMARK  163  A    between atoms: _409  and  _410
REMARK  164  A    between atoms: _413  and  _415
REMARK  165  A    between atoms: _415  and  _416
REMARK  166  A    between atoms: _415  and  _418
REMARK  167  A    between atoms: _418  and  _419
REMARK  168  A    between atoms: _422  and  _424
REMARK  169  A    between atoms: _424  and  _425
REMARK  170  A    between atoms: _424  and  _427
REMARK  171  A    between atoms: _427  and  _428
REMARK  172  A    between atoms: _428  and  _429
REMARK                            x       y       z     vdW  Elec       q    Type
REMARK                         _______ _______ _______ _____ _____    ______ ____
ROOT
ATOM      1  C   MET A   1      33.052  43.158  69.910  0.00  0.00    +0.238 C 
ATOM      2  N   ILE A   2      32.241  43.075  70.975  0.00  0.00    -0.298 N 
ATOM      3  H   ILE A   2      32.100  42.155  71.439  0.00  0.00    +0.150 HD
ATOM      4  O   MET A   1      33.301  44.210  69.333  0.00  0.00    -0.274 OA
ENDROOT
BRANCH   1   5
ATOM      5  CA  MET A   1      33.690  41.864  69.429  0.00  0.00    +0.146 C 
BRANCH   5   6
ATOM      6  N   MET A   1      34.020  41.019  70.541  0.00  0.00    -0.238 NA
ATOM      7  H   MET A   1      33.395  40.230  70.803  0.00  0.00    +0.142 HD
ENDBRANCH   5   6
BRANCH   5   8
ATOM      8  CB  MET A   1      32.787  41.127  68.435  0.00  0.00    +0.038 C 
BRANCH   8   9
ATOM      9  CG  MET A   1      33.423  39.895  67.795  0.00  0.00    +0.060 C 
BRANCH   9  10
ATOM     10  SD  MET A   1      33.304  38.399  68.746  0.00  0.00    -0.139 S 
ATOM     11  CE  MET A   1      31.531  38.034  68.605  0.00  0.00    +0.069 C 
ENDBRANCH   9  10
ENDBRANCH   8   9
ENDBRANCH   5   8
ENDBRANCH   1   5
BRANCH   2  12
ATOM     12  CA  ILE A   2      31.555  44.249  71.493  0.00  0.00    +0.137 C 
BRANCH  12  13
ATOM     13  CB  ILE A   2      30.571  43.855  72.656  0.00  0.00    +0.026 C 
ATOM     14  CG2 ILE A   2      30.115  45.118  73.417  0.00  0.00    +0.002 C 
BRANCH  13  15
ATOM     15  CG1 ILE A   2      29.372  42.989  72.129  0.00  0.00    +0.002 C 
ATOM     16  CD1 ILE A   2      28.506  43.801  71.157  0.00  0.00    +0.000 C 
ENDBRANCH  13  15
ENDBRANCH  12  13
BRANCH  12  17
ATOM     17  C   ILE A   2      32.584  45.296  71.983  0.00  0.00    +0.227 C 
ATOM     18  O   ILE A   2      32.420  46.511  71.766  0.00  0.00    -0.286 OA
ENDBRANCH  12  17
ENDBRANCH   2  12
TORSDOF 9
REMARK  Name = ../refined-set-2016/2jke/2jke_pocket.pdb
REMARK  172 active torsions:
REMARK  status: ('A' for Active; 'I' for Inactive)
REMARK    1  A    between atoms: _1  and  _3
REMARK    2  A    between atoms: _3  and  _4
REMARK    3  A    between atoms: _3  and  _6
REMARK    4  A    between atoms: _6  and  _7
REMARK    5  A    between atoms: _7  and  _8
REMARK    6  A    between atoms: _11  and  _13
REMARK    7  A    between atoms: _13  and  _14
REMARK    8  A    between atoms: _13  and  _16
REMARK    9  A    between atoms: _16  and  _17
REMARK   10  A    between atoms: _22  and  _24
REMARK   11  A    between atoms: _24  and  _25
REMARK   12  A    between atoms: _24  and  _27
REMARK   13  A    between atoms: _27  and  _28
REMARK   14  A    between atoms: _33  and  _34
REMARK   15  A    between atoms: _36  and  _38
REMARK   16  A    between atoms: _38  and  _39
REMARK   17  A    between atoms: _38  and  _41
REMARK   18  A    between atoms: _44  and  _46
REMARK   19  A    between atoms: _46  and  _47
REMARK   20  A    between atoms: _46  and  _49
REMARK   21  A    between atoms: _49  and  _50
REMARK   22  A    between atoms: _60  and  _62
REMARK   23  A    between atoms: _62  and  _63
REMARK   24  A    between atoms: _62  and  _65
REMARK   25  A    between atoms: _65  and  _66
REMARK   26  A    between atoms: _76  and  _78
REMARK   27  A    between atoms: _78  and  _79
REMARK   28  A    between atoms: _78  and  _81
REMARK   29  A    between atoms: _81  and  _82
REMARK   30  A    between atoms: _82  and  _83
REMARK   31  A    between atoms: _85  and  _87
REMARK   32  A    between atoms: _87  and  _88
REMARK   33  A    between atoms: _87  and  _90
REMARK   34  A    between atoms: _90  and  _91
REMARK   35  A    between atoms: _94  and  _96
REMARK   36  A    between atoms: _96  and  _97
REMARK   37  A    between atoms: _96  and  _99
REMARK   38  A    between atoms: _99  and  _100
REMARK   39  A    between atoms: _110  and  _112
REMARK   40  A    between atoms: _112  and  _113
REMARK   41  A    between atoms: _112  and  _115
REMARK   42  A    between atoms: _115  and  _116
REMARK   43  A    between atoms: _119  and  _121
REMARK   44  A    between atoms: _121  and  _122
REMARK   45  A    between atoms: _121  and  _124
REMARK   46  A    between atoms: _124  and  _125
REMARK   47  A    between atoms: _125  and  _126
REMARK   48  A    between atoms: _129  and  _131
REMARK   49  A    between atoms: _131  and  _132
REMARK   50  A    between atoms: _134  and  _136
REMARK   51  A    between atoms: _136  and  _137
REMARK   52  A    between atoms: _136  and  _139
REMARK   53  A    between atoms: _139  and  _140
REMARK   54  A    between atoms: _150  and  _152
REMARK   55  A    between atoms: _152  and  _153
REMARK   56  A    between atoms: _152  and  _155
REMARK   57  A    between atoms: _155  and  _156
REMARK   58  A    between atoms: _166  and  _168
REMARK   59  A    between atoms: _168  and  _169
REMARK   60  A    between atoms: _168  and  _171
REMARK   61  A    between atoms: _171  and  _172
REMARK   62  A    between atoms: _178  and  _180
REMARK   63  A    between atoms: _180  and  _181
REMARK   64  A    between atoms: _180  and  _183
REMARK   65  A    between atoms: _183  and  _184
REMARK   66  A    between atoms: _190  and  _192
REMARK   67  A    between atoms: _192  and  _193
REMARK   68  A    between atoms: _192  and  _195
REMARK   69  A    between atoms: _195  and  _196
REMARK   70  A    between atoms: _201  and  _203
REMARK   71  A    between atoms: _203  and  _204
REMARK   72  A    between atoms: _203  and  _206
REMARK   73  A    between atoms: _206  and  _207
REMARK   74  A    between atoms: _212  and  _214
REMARK   75  A    between atoms: _214  and  _215
REMARK   76  A    between atoms: _214  and  _217
REMARK   77  A    between atoms: _217  and  _218
REMARK   78  A    between atoms: _218  and  _219
REMARK   79  A    between atoms: _222  and  _224
REMARK   80  A    between atoms: _224  and  _225
REMARK   81  A    between atoms: _224  and  _227
REMARK   82  A    between atoms: _227  and  _228
REMARK   83  A    between atoms: _231  and  _233
REMARK   84  A    between atoms: _233  and  _234
REMARK   85  A    between atoms: _233  and  _236
REMARK   86  A    between atoms: _236  and  _237
REMARK   87  A    between atoms: _239  and  _241
REMARK   88  A    between atoms: _241  and  _242
REMARK   89  A    between atoms: _241  and  _244
REMARK   90  A    between atoms: _244  and  _245
REMARK   91  A    between atoms: _245  and  _246
REMARK   92  A    between atoms: _246  and  _247
REMARK   93  A    between atoms: _247  and  _248
REMARK   94  A    between atoms: _252  and  _254
REMARK   95  A    between atoms: _254  and  _255
REMARK   96  A    between atoms: _254  and  _257
REMARK   97  A    between atoms: _257  and  _258
REMARK   98  A    between atoms: _260  and  _262
REMARK   99  A    between atoms: _262  and  _263
REMARK  100  A    between atoms: _265  and  _267
REMARK  101  A    between atoms: _267  and  _268
REMARK  102  A    between atoms: _267  and  _270
REMARK  103  A    between atoms: _270  and  _271
REMARK  104  A    between atoms: _276  and  _277
REMARK  105  A    between atoms: _279  and  _281
REMARK  106  A    between atoms: _281  and  _282
REMARK  107  A    between atoms: _281  and  _284
REMARK  108  A    between atoms: _287  and  _289
REMARK  109  A    between atoms: _289  and  _290
REMARK  110  A    between atoms: _292  and  _294
REMARK  111  A    between atoms: _294  and  _295
REMARK  112  A    between atoms: _294  and  _297
REMARK  113  A    between atoms: _297  and  _298
REMARK  114  A    between atoms: _303  and  _305
REMARK  115  A    between atoms: _305  and  _306
REMARK  116  A    between atoms: _309  and  _311
REMARK  117  A    between atoms: _311  and  _312
REMARK  118  A    between atoms: _311  and  _314
REMARK  119  A    between atoms: _314  and  _315
REMARK  120  A    between atoms: _320  and  _322
REMARK  121  A    between atoms: _322  and  _323
REMARK  122  A    between atoms: _322  and  _325
REMARK  123  A    between atoms: _325  and  _326
REMARK  124  A    between atoms: _326  and  _327
REMARK  125  A    between atoms: _327  and  _329
REMARK  126  A    between atoms: _329  and  CA_431
REMARK  127  A    between atoms: _330  and  _332
REMARK  128  A    between atoms: _332  and  _333
REMARK  129  A    between atoms: _332  and  _335
REMARK  130  A    between atoms: _335  and  _336
REMARK  131  A    between atoms: _336  and  _337
REMARK  132  A    between atoms: _337  and  _338
REMARK  133  A    between atoms: _338  and  CA_431
REMARK  134  A    between atoms: _340  and  _342
REMARK  135  A    between atoms: _342  and  _343
REMARK  136  A    between atoms: _342  and  _345
REMARK  137  A    between atoms: _345  and  _346
REMARK  138  A    between atoms: _348  and  _350
REMARK  139  A    between atoms: _350  and  _351
REMARK  140  A    between atoms: _354  and  _356
REMARK  141  A    between atoms: _356  and  _357
REMARK  142  A    between atoms: _359  and  _361
REMARK  143  A    between atoms: _361  and  _362
REMARK  144  A    between atoms: _361  and  _364
REMARK  145  A    between atoms: _364  and  _365
REMARK  146  A    between atoms: _368  and  _370
REMARK  147  A    between atoms: _370  and  _371
REMARK  148  A    between atoms: _370  and  _373
REMARK  149  A    between atoms: _373  and  _374
REMARK  150  A    between atoms: _374  and  _375
REMARK  151  A    between atoms: _378  and  _380
REMARK  152  A    between atoms: _380  and  _381
REMARK  153  A    between atoms: _380  and  _383
REMARK  154  A    between atoms: _383  and  _384
REMARK  155  A    between atoms: _389  and  _390
REMARK  156  A    between atoms: _392  and  _394
REMARK  157  A    between atoms: _394  and  _395
REMARK  158  A    between atoms: _394  and  _397
REMARK  159  A    between atoms: _397  and  _398
REMARK  160  A    between atoms: _404  and  _406
REMARK  161  A    between atoms: _406  and  _407
REMARK  162  A    between atoms: _406  and  _409
REMARK  163  A    between atoms: _409  and  _410
REMARK  164  A    between atoms: _413  and  _415
REMARK  165  A    between atoms: _415  and  _416
REMARK  166  A    between atoms: _415  and  _418
REMARK  167  A    between atoms: _418  and  _419
REMARK  168  A    between atoms: _422  and  _424
REMARK  169  A    between atoms: _424  and  _425
REMARK  170  A    between atoms: _424  and  _427
REMARK  171  A    between atoms: _427  and  _428
REMARK  172  A    between atoms: _428  and  _429
REMARK                            x       y       z     vdW  Elec       q    Type
REMARK                         _______ _______ _______ _____ _____    ______ ____
ROOT
ATOM      1  CG  TRP A   1      30.705  40.303  64.776  0.00  0.00    -0.002 A 
ATOM      2  CD2 TRP A   1      30.647  41.538  65.524  0.00  0.00    +0.013 A 
ATOM      3  CE2 TRP A   1      29.767  41.325  66.606  0.00  0.00    +0.056 A 
ATOM      4  CZ2 TRP A   1      29.490  42.314  67.566  0.00  0.00    +0.017 A 
ATOM      5  CH2 TRP A   1      30.090  43.544  67.415  0.00  0.00    +0.001 A 
ATOM      6  CZ3 TRP A   1      30.976  43.796  66.326  0.00  0.00    +0.000 A 
ATOM      7  NE1 TRP A   1      29.320  40.038  66.517  0.00  0.00    -0.352 N 
ATOM      8  HE1 TRP A   1      28.674  39.580  67.191  0.00  0.00    +0.166 HD
ATOM      9  CE3 TRP A   1      31.260  42.789  65.386  0.00  0.00    +0.001 A 
ATOM     10  CD1 TRP A   1      29.852  39.441  65.405  0.00  0.00    +0.068 A 
ENDROOT
BRANCH   1  11
ATOM     11  CB  TRP A   1      31.496  40.032  63.507  0.00  0.00    +0.053 C 
BRANCH  11  12
ATOM     12  CA  TRP A   1      32.884  39.374  63.715  0.00  0.00    +0.137 C 
BRANCH  12  13
ATOM     13  N   TRP A   1      33.881  40.324  64.258  0.00  0.00    -0.239 NA
ATOM     14  H   TRP A   1      33.676  41.344  64.255  0.00  0.00    +0.142 HD
ENDBRANCH  12  13
BRANCH  12  15
ATOM     15  C   TRP A   1      33.375  38.886  62.341  0.00  0.00    +0.224 C 
ATOM     16  O   TRP A   1      33.079  37.752  61.916  0.00  0.00    -0.287 OA
ENDBRANCH  12  15
ENDBRANCH  11  12
ENDBRANCH   1  11
TORSDOF 4
REMARK  Name = ../refined-set-2016/2jke/2jke_pocket.pdb
REMARK  172 active torsions:
REMARK  status: ('A' for Active; 'I' for Inactive)
REMARK    1  A    between atoms: _1  and  _3
REMARK    2  A    between atoms: _3  and  _4
REMARK    3  A    between atoms: _3  and  _6
REMARK    4  A    between atoms: _6  and  _7
REMARK    5  A    between atoms: _7  and  _8
REMARK    6  A    between atoms: _11  and  _13
REMARK    7  A    between atoms: _13  and  _14
REMARK    8  A    between atoms: _13  and  _16
REMARK    9  A    between atoms: _16  and  _17
REMARK   10  A    between atoms: _22  and  _24
REMARK   11  A    between atoms: _24  and  _25
REMARK   12  A    between atoms: _24  and  _27
REMARK   13  A    between atoms: _27  and  _28
REMARK   14  A    between atoms: _33  and  _34
REMARK   15  A    between atoms: _36  and  _38
REMARK   16  A    between atoms: _38  and  _39
REMARK   17  A    between atoms: _38  and  _41
REMARK   18  A    between atoms: _44  and  _46
REMARK   19  A    between atoms: _46  and  _47
REMARK   20  A    between atoms: _46  and  _49
REMARK   21  A    between atoms: _49  and  _50
REMARK   22  A    between atoms: _60  and  _62
REMARK   23  A    between atoms: _62  and  _63
REMARK   24  A    between atoms: _62  and  _65
REMARK   25  A    between atoms: _65  and  _66
REMARK   26  A    between atoms: _76  and  _78
REMARK   27  A    between atoms: _78  and  _79
REMARK   28  A    between atoms: _78  and  _81
REMARK   29  A    between atoms: _81  and  _82
REMARK   30  A    between atoms: _82  and  _83
REMARK   31  A    between atoms: _85  and  _87
REMARK   32  A    between atoms: _87  and  _88
REMARK   33  A    between atoms: _87  and  _90
REMARK   34  A    between atoms: _90  and  _91
REMARK   35  A    between atoms: _94  and  _96
REMARK   36  A    between atoms: _96  and  _97
REMARK   37  A    between atoms: _96  and  _99
REMARK   38  A    between atoms: _99  and  _100
REMARK   39  A    between atoms: _110  and  _112
REMARK   40  A    between atoms: _112  and  _113
REMARK   41  A    between atoms: _112  and  _115
REMARK   42  A    between atoms: _115  and  _116
REMARK   43  A    between atoms: _119  and  _121
REMARK   44  A    between atoms: _121  and  _122
REMARK   45  A    between atoms: _121  and  _124
REMARK   46  A    between atoms: _124  and  _125
REMARK   47  A    between atoms: _125  and  _126
REMARK   48  A    between atoms: _129  and  _131
REMARK   49  A    between atoms: _131  and  _132
REMARK   50  A    between atoms: _134  and  _136
REMARK   51  A    between atoms: _136  and  _137
REMARK   52  A    between atoms: _136  and  _139
REMARK   53  A    between atoms: _139  and  _140
REMARK   54  A    between atoms: _150  and  _152
REMARK   55  A    between atoms: _152  and  _153
REMARK   56  A    between atoms: _152  and  _155
REMARK   57  A    between atoms: _155  and  _156
REMARK   58  A    between atoms: _166  and  _168
REMARK   59  A    between atoms: _168  and  _169
REMARK   60  A    between atoms: _168  and  _171
REMARK   61  A    between atoms: _171  and  _172
REMARK   62  A    between atoms: _178  and  _180
REMARK   63  A    between atoms: _180  and  _181
REMARK   64  A    between atoms: _180  and  _183
REMARK   65  A    between atoms: _183  and  _184
REMARK   66  A    between atoms: _190  and  _192
REMARK   67  A    between atoms: _192  and  _193
REMARK   68  A    between atoms: _192  and  _195
REMARK   69  A    between atoms: _195  and  _196
REMARK   70  A    between atoms: _201  and  _203
REMARK   71  A    between atoms: _203  and  _204
REMARK   72  A    between atoms: _203  and  _206
REMARK   73  A    between atoms: _206  and  _207
REMARK   74  A    between atoms: _212  and  _214
REMARK   75  A    between atoms: _214  and  _215
REMARK   76  A    between atoms: _214  and  _217
REMARK   77  A    between atoms: _217  and  _218
REMARK   78  A    between atoms: _218  and  _219
REMARK   79  A    between atoms: _222  and  _224
REMARK   80  A    between atoms: _224  and  _225
REMARK   81  A    between atoms: _224  and  _227
REMARK   82  A    between atoms: _227  and  _228
REMARK   83  A    between atoms: _231  and  _233
REMARK   84  A    between atoms: _233  and  _234
REMARK   85  A    between atoms: _233  and  _236
REMARK   86  A    between atoms: _236  and  _237
REMARK   87  A    between atoms: _239  and  _241
REMARK   88  A    between atoms: _241  and  _242
REMARK   89  A    between atoms: _241  and  _244
REMARK   90  A    between atoms: _244  and  _245
REMARK   91  A    between atoms: _245  and  _246
REMARK   92  A    between atoms: _246  and  _247
REMARK   93  A    between atoms: _247  and  _248
REMARK   94  A    between atoms: _252  and  _254
REMARK   95  A    between atoms: _254  and  _255
REMARK   96  A    between atoms: _254  and  _257
REMARK   97  A    between atoms: _257  and  _258
REMARK   98  A    between atoms: _260  and  _262
REMARK   99  A    between atoms: _262  and  _263
REMARK  100  A    between atoms: _265  and  _267
REMARK  101  A    between atoms: _267  and  _268
REMARK  102  A    between atoms: _267  and  _270
REMARK  103  A    between atoms: _270  and  _271
REMARK  104  A    between atoms: _276  and  _277
REMARK  105  A    between atoms: _279  and  _281
REMARK  106  A    between atoms: _281  and  _282
REMARK  107  A    between atoms: _281  and  _284
REMARK  108  A    between atoms: _287  and  _289
REMARK  109  A    between atoms: _289  and  _290
REMARK  110  A    between atoms: _292  and  _294
REMARK  111  A    between atoms: _294  and  _295
REMARK  112  A    between atoms: _294  and  _297
REMARK  113  A    between atoms: _297  and  _298
REMARK  114  A    between atoms: _303  and  _305
REMARK  115  A    between atoms: _305  and  _306
REMARK  116  A    between atoms: _309  and  _311
REMARK  117  A    between atoms: _311  and  _312
REMARK  118  A    between atoms: _311  and  _314
REMARK  119  A    between atoms: _314  and  _315
REMARK  120  A    between atoms: _320  and  _322
REMARK  121  A    between atoms: _322  and  _323
REMARK  122  A    between atoms: _322  and  _325
REMARK  123  A    between atoms: _325  and  _326
REMARK  124  A    between atoms: _326  and  _327
REMARK  125  A    between atoms: _327  and  _329
REMARK  126  A    between atoms: _329  and  CA_431
REMARK  127  A    between atoms: _330  and  _332
REMARK  128  A    between atoms: _332  and  _333
REMARK  129  A    between atoms: _332  and  _335
REMARK  130  A    between atoms: _335  and  _336
REMARK  131  A    between atoms: _336  and  _337
REMARK  132  A    between atoms: _337  and  _338
REMARK  133  A    between atoms: _338  and  CA_431
REMARK  134  A    between atoms: _340  and  _342
REMARK  135  A    between atoms: _342  and  _343
REMARK  136  A    between atoms: _342  and  _345
REMARK  137  A    between atoms: _345  and  _346
REMARK  138  A    between atoms: _348  and  _350
REMARK  139  A    between atoms: _350  and  _351
REMARK  140  A    between atoms: _354  and  _356
REMARK  141  A    between atoms: _356  and  _357
REMARK  142  A    between atoms: _359  and  _361
REMARK  143  A    between atoms: _361  and  _362
REMARK  144  A    between atoms: _361  and  _364
REMARK  145  A    between atoms: _364  and  _365
REMARK  146  A    between atoms: _368  and  _370
REMARK  147  A    between atoms: _370  and  _371
REMARK  148  A    between atoms: _370  and  _373
REMARK  149  A    between atoms: _373  and  _374
REMARK  150  A    between atoms: _374  and  _375
REMARK  151  A    between atoms: _378  and  _380
REMARK  152  A    between atoms: _380  and  _381
REMARK  153  A    between atoms: _380  and  _383
REMARK  154  A    between atoms: _383  and  _384
REMARK  155  A    between atoms: _389  and  _390
REMARK  156  A    between atoms: _392  and  _394
REMARK  157  A    between atoms: _394  and  _395
REMARK  158  A    between atoms: _394  and  _397
REMARK  159  A    between atoms: _397  and  _398
REMARK  160  A    between atoms: _404  and  _406
REMARK  161  A    between atoms: _406  and  _407
REMARK  162  A    between atoms: _406  and  _409
REMARK  163  A    between atoms: _409  and  _410
REMARK  164  A    between atoms: _413  and  _415
REMARK  165  A    between atoms: _415  and  _416
REMARK  166  A    between atoms: _415  and  _418
REMARK  167  A    between atoms: _418  and  _419
REMARK  168  A    between atoms: _422  and  _424
REMARK  169  A    between atoms: _424  and  _425
REMARK  170  A    between atoms: _424  and  _427
REMARK  171  A    between atoms: _427  and  _428
REMARK  172  A    between atoms: _428  and  _429
REMARK                            x       y       z     vdW  Elec       q    Type
REMARK                         _______ _______ _______ _____ _____    ______ ____
ROOT
ATOM      1  CA  LEU A   1      26.563  31.613  71.914  0.00  0.00    +0.133 C 
ENDROOT
BRANCH   1   2
ATOM      2  N   LEU A   1      26.887  30.833  73.103  0.00  0.00    -0.239 NA
ATOM      3  H   LEU A   1      27.002  31.319  74.015  0.00  0.00    +0.142 HD
ENDBRANCH   1   2
BRANCH   1   4
ATOM      4  C   LEU A   1      27.838  31.888  71.118  0.00  0.00    +0.224 C 
ATOM      5  O   LEU A   1      28.863  32.214  71.710  0.00  0.00    -0.287 OA
ENDBRANCH   1   4
BRANCH   1   6
ATOM      6  CB  LEU A   1      25.954  32.944  72.380  0.00  0.00    +0.025 C 
BRANCH   6   7
ATOM      7  CG  LEU A   1      25.840  34.108  71.362  0.00  0.00    +0.002 C 
ATOM      8  CD2 LEU A   1      25.495  35.418  72.043  0.00  0.00    +0.000 C 
ATOM      9  CD1 LEU A   1      24.768  33.753  70.313  0.00  0.00    +0.000 C 
ENDBRANCH   6   7
ENDBRANCH   1   6
TORSDOF 4
REMARK  Name = ../refined-set-2016/2jke/2jke_pocket.pdb
REMARK  172 active torsions:
REMARK  status: ('A' for Active; 'I' for Inactive)
REMARK    1  A    between atoms: _1  and  _3
REMARK    2  A    between atoms: _3  and  _4
REMARK    3  A    between atoms: _3  and  _6
REMARK    4  A    between atoms: _6  and  _7
REMARK    5  A    between atoms: _7  and  _8
REMARK    6  A    between atoms: _11  and  _13
REMARK    7  A    between atoms: _13  and  _14
REMARK    8  A    between atoms: _13  and  _16
REMARK    9  A    between atoms: _16  and  _17
REMARK   10  A    between atoms: _22  and  _24
REMARK   11  A    between atoms: _24  and  _25
REMARK   12  A    between atoms: _24  and  _27
REMARK   13  A    between atoms: _27  and  _28
REMARK   14  A    between atoms: _33  and  _34
REMARK   15  A    between atoms: _36  and  _38
REMARK   16  A    between atoms: _38  and  _39
REMARK   17  A    between atoms: _38  and  _41
REMARK   18  A    between atoms: _44  and  _46
REMARK   19  A    between atoms: _46  and  _47
REMARK   20  A    between atoms: _46  and  _49
REMARK   21  A    between atoms: _49  and  _50
REMARK   22  A    between atoms: _60  and  _62
REMARK   23  A    between atoms: _62  and  _63
REMARK   24  A    between atoms: _62  and  _65
REMARK   25  A    between atoms: _65  and  _66
REMARK   26  A    between atoms: _76  and  _78
REMARK   27  A    between atoms: _78  and  _79
REMARK   28  A    between atoms: _78  and  _81
REMARK   29  A    between atoms: _81  and  _82
REMARK   30  A    between atoms: _82  and  _83
REMARK   31  A    between atoms: _85  and  _87
REMARK   32  A    between atoms: _87  and  _88
REMARK   33  A    between atoms: _87  and  _90
REMARK   34  A    between atoms: _90  and  _91
REMARK   35  A    between atoms: _94  and  _96
REMARK   36  A    between atoms: _96  and  _97
REMARK   37  A    between atoms: _96  and  _99
REMARK   38  A    between atoms: _99  and  _100
REMARK   39  A    between atoms: _110  and  _112
REMARK   40  A    between atoms: _112  and  _113
REMARK   41  A    between atoms: _112  and  _115
REMARK   42  A    between atoms: _115  and  _116
REMARK   43  A    between atoms: _119  and  _121
REMARK   44  A    between atoms: _121  and  _122
REMARK   45  A    between atoms: _121  and  _124
REMARK   46  A    between atoms: _124  and  _125
REMARK   47  A    between atoms: _125  and  _126
REMARK   48  A    between atoms: _129  and  _131
REMARK   49  A    between atoms: _131  and  _132
REMARK   50  A    between atoms: _134  and  _136
REMARK   51  A    between atoms: _136  and  _137
REMARK   52  A    between atoms: _136  and  _139
REMARK   53  A    between atoms: _139  and  _140
REMARK   54  A    between atoms: _150  and  _152
REMARK   55  A    between atoms: _152  and  _153
REMARK   56  A    between atoms: _152  and  _155
REMARK   57  A    between atoms: _155  and  _156
REMARK   58  A    between atoms: _166  and  _168
REMARK   59  A    between atoms: _168  and  _169
REMARK   60  A    between atoms: _168  and  _171
REMARK   61  A    between atoms: _171  and  _172
REMARK   62  A    between atoms: _178  and  _180
REMARK   63  A    between atoms: _180  and  _181
REMARK   64  A    between atoms: _180  and  _183
REMARK   65  A    between atoms: _183  and  _184
REMARK   66  A    between atoms: _190  and  _192
REMARK   67  A    between atoms: _192  and  _193
REMARK   68  A    between atoms: _192  and  _195
REMARK   69  A    between atoms: _195  and  _196
REMARK   70  A    between atoms: _201  and  _203
REMARK   71  A    between atoms: _203  and  _204
REMARK   72  A    between atoms: _203  and  _206
REMARK   73  A    between atoms: _206  and  _207
REMARK   74  A    between atoms: _212  and  _214
REMARK   75  A    between atoms: _214  and  _215
REMARK   76  A    between atoms: _214  and  _217
REMARK   77  A    between atoms: _217  and  _218
REMARK   78  A    between atoms: _218  and  _219
REMARK   79  A    between atoms: _222  and  _224
REMARK   80  A    between atoms: _224  and  _225
REMARK   81  A    between atoms: _224  and  _227
REMARK   82  A    between atoms: _227  and  _228
REMARK   83  A    between atoms: _231  and  _233
REMARK   84  A    between atoms: _233  and  _234
REMARK   85  A    between atoms: _233  and  _236
REMARK   86  A    between atoms: _236  and  _237
REMARK   87  A    between atoms: _239  and  _241
REMARK   88  A    between atoms: _241  and  _242
REMARK   89  A    between atoms: _241  and  _244
REMARK   90  A    between atoms: _244  and  _245
REMARK   91  A    between atoms: _245  and  _246
REMARK   92  A    between atoms: _246  and  _247
REMARK   93  A    between atoms: _247  and  _248
REMARK   94  A    between atoms: _252  and  _254
REMARK   95  A    between atoms: _254  and  _255
REMARK   96  A    between atoms: _254  and  _257
REMARK   97  A    between atoms: _257  and  _258
REMARK   98  A    between atoms: _260  and  _262
REMARK   99  A    between atoms: _262  and  _263
REMARK  100  A    between atoms: _265  and  _267
REMARK  101  A    between atoms: _267  and  _268
REMARK  102  A    between atoms: _267  and  _270
REMARK  103  A    between atoms: _270  and  _271
REMARK  104  A    between atoms: _276  and  _277
REMARK  105  A    between atoms: _279  and  _281
REMARK  106  A    between atoms: _281  and  _282
REMARK  107  A    between atoms: _281  and  _284
REMARK  108  A    between atoms: _287  and  _289
REMARK  109  A    between atoms: _289  and  _290
REMARK  110  A    between atoms: _292  and  _294
REMARK  111  A    between atoms: _294  and  _295
REMARK  112  A    between atoms: _294  and  _297
REMARK  113  A    between atoms: _297  and  _298
REMARK  114  A    between atoms: _303  and  _305
REMARK  115  A    between atoms: _305  and  _306
REMARK  116  A    between atoms: _309  and  _311
REMARK  117  A    between atoms: _311  and  _312
REMARK  118  A    between atoms: _311  and  _314
REMARK  119  A    between atoms: _314  and  _315
REMARK  120  A    between atoms: _320  and  _322
REMARK  121  A    between atoms: _322  and  _323
REMARK  122  A    between atoms: _322  and  _325
REMARK  123  A    between atoms: _325  and  _326
REMARK  124  A    between atoms: _326  and  _327
REMARK  125  A    between atoms: _327  and  _329
REMARK  126  A    between atoms: _329  and  CA_431
REMARK  127  A    between atoms: _330  and  _332
REMARK  128  A    between atoms: _332  and  _333
REMARK  129  A    between atoms: _332  and  _335
REMARK  130  A    between atoms: _335  and  _336
REMARK  131  A    between atoms: _336  and  _337
REMARK  132  A    between atoms: _337  and  _338
REMARK  133  A    between atoms: _338  and  CA_431
REMARK  134  A    between atoms: _340  and  _342
REMARK  135  A    between atoms: _342  and  _343
REMARK  136  A    between atoms: _342  and  _345
REMARK  137  A    between atoms: _345  and  _346
REMARK  138  A    between atoms: _348  and  _350
REMARK  139  A    between atoms: _350  and  _351
REMARK  140  A    between atoms: _354  and  _356
REMARK  141  A    between atoms: _356  and  _357
REMARK  142  A    between atoms: _359  and  _361
REMARK  143  A    between atoms: _361  and  _362
REMARK  144  A    between atoms: _361  and  _364
REMARK  145  A    between atoms: _364  and  _365
REMARK  146  A    between atoms: _368  and  _370
REMARK  147  A    between atoms: _370  and  _371
REMARK  148  A    between atoms: _370  and  _373
REMARK  149  A    between atoms: _373  and  _374
REMARK  150  A    between atoms: _374  and  _375
REMARK  151  A    between atoms: _378  and  _380
REMARK  152  A    between atoms: _380  and  _381
REMARK  153  A    between atoms: _380  and  _383
REMARK  154  A    between atoms: _383  and  _384
REMARK  155  A    between atoms: _389  and  _390
REMARK  156  A    between atoms: _392  and  _394
REMARK  157  A    between atoms: _394  and  _395
REMARK  158  A    between atoms: _394  and  _397
REMARK  159  A    between atoms: _397  and  _398
REMARK  160  A    between atoms: _404  and  _406
REMARK  161  A    between atoms: _406  and  _407
REMARK  162  A    between atoms: _406  and  _409
REMARK  163  A    between atoms: _409  and  _410
REMARK  164  A    between atoms: _413  and  _415
REMARK  165  A    between atoms: _415  and  _416
REMARK  166  A    between atoms: _415  and  _418
REMARK  167  A    between atoms: _418  and  _419
REMARK  168  A    between atoms: _422  and  _424
REMARK  169  A    between atoms: _424  and  _425
REMARK  170  A    between atoms: _424  and  _427
REMARK  171  A    between atoms: _427  and  _428
REMARK  172  A    between atoms: _428  and  _429
REMARK                            x       y       z     vdW  Elec       q    Type
REMARK                         _______ _______ _______ _____ _____    ______ ____
ROOT
ATOM      1  CA  GLU A   1      28.670  35.453  66.833  0.00  0.00    +0.145 C 
ENDROOT
BRANCH   1   2
ATOM      2  C   GLU A   1      29.848  35.620  65.901  0.00  0.00    +0.238 C 
ATOM      3  O   GLU A   1      30.999  35.487  66.334  0.00  0.00    -0.274 OA
ATOM      4  N   GLY A   2      29.555  35.900  64.629  0.00  0.00    -0.297 N 
ATOM      5  H   GLY A   2      28.563  36.061  64.360  0.00  0.00    +0.150 HD
BRANCH   4   6
ATOM      6  CA  GLY A   2      30.601  35.986  63.601  0.00  0.00    +0.163 C 
BRANCH   6   7
ATOM      7  C   GLY A   2      30.935  34.639  63.000  0.00  0.00    +0.229 C 
ATOM      8  O   GLY A   2      31.987  34.507  62.382  0.00  0.00    -0.286 OA
ENDBRANCH   6   7
ENDBRANCH   4   6
ENDBRANCH   1   2
BRANCH   1   9
ATOM      9  N   GLU A   1      29.002  34.465  67.889  0.00  0.00    -0.238 NA
ATOM     10  H   GLU A   1      29.707  34.705  68.615  0.00  0.00    +0.142 HD
ENDBRANCH   1   9
BRANCH   1  11
ATOM     11  CB  GLU A   1      28.295  36.821  67.410  0.00  0.00    +0.038 C 
BRANCH  11  12
ATOM     12  CG  GLU A   1      27.198  36.761  68.501  0.00  0.00    +0.116 C 
BRANCH  12  13
ATOM     13  CD  GLU A   1      26.604  38.127  68.782  0.00  0.00    +0.365 C 
ATOM     14  OE2 GLU A   1      25.572  38.164  69.480  0.00  0.00    -0.246 OA
ATOM     15  OE1 GLU A   1      27.187  39.169  68.359  0.00  0.00    -0.246 OA
ENDBRANCH  12  13
ENDBRANCH  11  12
ENDBRANCH   1  11
TORSDOF 7
REMARK  Name = ../refined-set-2016/2jke/2jke_pocket.pdb
REMARK  172 active torsions:
REMARK  status: ('A' for Active; 'I' for Inactive)
REMARK    1  A    between atoms: _1  and  _3
REMARK    2  A    between atoms: _3  and  _4
REMARK    3  A    between atoms: _3  and  _6
REMARK    4  A    between atoms: _6  and  _7
REMARK    5  A    between atoms: _7  and  _8
REMARK    6  A    between atoms: _11  and  _13
REMARK    7  A    between atoms: _13  and  _14
REMARK    8  A    between atoms: _13  and  _16
REMARK    9  A    between atoms: _16  and  _17
REMARK   10  A    between atoms: _22  and  _24
REMARK   11  A    between atoms: _24  and  _25
REMARK   12  A    between atoms: _24  and  _27
REMARK   13  A    between atoms: _27  and  _28
REMARK   14  A    between atoms: _33  and  _34
REMARK   15  A    between atoms: _36  and  _38
REMARK   16  A    between atoms: _38  and  _39
REMARK   17  A    between atoms: _38  and  _41
REMARK   18  A    between atoms: _44  and  _46
REMARK   19  A    between atoms: _46  and  _47
REMARK   20  A    between atoms: _46  and  _49
REMARK   21  A    between atoms: _49  and  _50
REMARK   22  A    between atoms: _60  and  _62
REMARK   23  A    between atoms: _62  and  _63
REMARK   24  A    between atoms: _62  and  _65
REMARK   25  A    between atoms: _65  and  _66
REMARK   26  A    between atoms: _76  and  _78
REMARK   27  A    between atoms: _78  and  _79
REMARK   28  A    between atoms: _78  and  _81
REMARK   29  A    between atoms: _81  and  _82
REMARK   30  A    between atoms: _82  and  _83
REMARK   31  A    between atoms: _85  and  _87
REMARK   32  A    between atoms: _87  and  _88
REMARK   33  A    between atoms: _87  and  _90
REMARK   34  A    between atoms: _90  and  _91
REMARK   35  A    between atoms: _94  and  _96
REMARK   36  A    between atoms: _96  and  _97
REMARK   37  A    between atoms: _96  and  _99
REMARK   38  A    between atoms: _99  and  _100
REMARK   39  A    between atoms: _110  and  _112
REMARK   40  A    between atoms: _112  and  _113
REMARK   41  A    between atoms: _112  and  _115
REMARK   42  A    between atoms: _115  and  _116
REMARK   43  A    between atoms: _119  and  _121
REMARK   44  A    between atoms: _121  and  _122
REMARK   45  A    between atoms: _121  and  _124
REMARK   46  A    between atoms: _124  and  _125
REMARK   47  A    between atoms: _125  and  _126
REMARK   48  A    between atoms: _129  and  _131
REMARK   49  A    between atoms: _131  and  _132
REMARK   50  A    between atoms: _134  and  _136
REMARK   51  A    between atoms: _136  and  _137
REMARK   52  A    between atoms: _136  and  _139
REMARK   53  A    between atoms: _139  and  _140
REMARK   54  A    between atoms: _150  and  _152
REMARK   55  A    between atoms: _152  and  _153
REMARK   56  A    between atoms: _152  and  _155
REMARK   57  A    between atoms: _155  and  _156
REMARK   58  A    between atoms: _166  and  _168
REMARK   59  A    between atoms: _168  and  _169
REMARK   60  A    between atoms: _168  and  _171
REMARK   61  A    between atoms: _171  and  _172
REMARK   62  A    between atoms: _178  and  _180
REMARK   63  A    between atoms: _180  and  _181
REMARK   64  A    between atoms: _180  and  _183
REMARK   65  A    between atoms: _183  and  _184
REMARK   66  A    between atoms: _190  and  _192
REMARK   67  A    between atoms: _192  and  _193
REMARK   68  A    between atoms: _192  and  _195
REMARK   69  A    between atoms: _195  and  _196
REMARK   70  A    between atoms: _201  and  _203
REMARK   71  A    between atoms: _203  and  _204
REMARK   72  A    between atoms: _203  and  _206
REMARK   73  A    between atoms: _206  and  _207
REMARK   74  A    between atoms: _212  and  _214
REMARK   75  A    between atoms: _214  and  _215
REMARK   76  A    between atoms: _214  and  _217
REMARK   77  A    between atoms: _217  and  _218
REMARK   78  A    between atoms: _218  and  _219
REMARK   79  A    between atoms: _222  and  _224
REMARK   80  A    between atoms: _224  and  _225
REMARK   81  A    between atoms: _224  and  _227
REMARK   82  A    between atoms: _227  and  _228
REMARK   83  A    between atoms: _231  and  _233
REMARK   84  A    between atoms: _233  and  _234
REMARK   85  A    between atoms: _233  and  _236
REMARK   86  A    between atoms: _236  and  _237
REMARK   87  A    between atoms: _239  and  _241
REMARK   88  A    between atoms: _241  and  _242
REMARK   89  A    between atoms: _241  and  _244
REMARK   90  A    between atoms: _244  and  _245
REMARK   91  A    between atoms: _245  and  _246
REMARK   92  A    between atoms: _246  and  _247
REMARK   93  A    between atoms: _247  and  _248
REMARK   94  A    between atoms: _252  and  _254
REMARK   95  A    between atoms: _254  and  _255
REMARK   96  A    between atoms: _254  and  _257
REMARK   97  A    between atoms: _257  and  _258
REMARK   98  A    between atoms: _260  and  _262
REMARK   99  A    between atoms: _262  and  _263
REMARK  100  A    between atoms: _265  and  _267
REMARK  101  A    between atoms: _267  and  _268
REMARK  102  A    between atoms: _267  and  _270
REMARK  103  A    between atoms: _270  and  _271
REMARK  104  A    between atoms: _276  and  _277
REMARK  105  A    between atoms: _279  and  _281
REMARK  106  A    between atoms: _281  and  _282
REMARK  107  A    between atoms: _281  and  _284
REMARK  108  A    between atoms: _287  and  _289
REMARK  109  A    between atoms: _289  and  _290
REMARK  110  A    between atoms: _292  and  _294
REMARK  111  A    between atoms: _294  and  _295
REMARK  112  A    between atoms: _294  and  _297
REMARK  113  A    between atoms: _297  and  _298
REMARK  114  A    between atoms: _303  and  _305
REMARK  115  A    between atoms: _305  and  _306
REMARK  116  A    between atoms: _309  and  _311
REMARK  117  A    between atoms: _311  and  _312
REMARK  118  A    between atoms: _311  and  _314
REMARK  119  A    between atoms: _314  and  _315
REMARK  120  A    between atoms: _320  and  _322
REMARK  121  A    between atoms: _322  and  _323
REMARK  122  A    between atoms: _322  and  _325
REMARK  123  A    between atoms: _325  and  _326
REMARK  124  A    between atoms: _326  and  _327
REMARK  125  A    between atoms: _327  and  _329
REMARK  126  A    between atoms: _329  and  CA_431
REMARK  127  A    between atoms: _330  and  _332
REMARK  128  A    between atoms: _332  and  _333
REMARK  129  A    between atoms: _332  and  _335
REMARK  130  A    between atoms: _335  and  _336
REMARK  131  A    between atoms: _336  and  _337
REMARK  132  A    between atoms: _337  and  _338
REMARK  133  A    between atoms: _338  and  CA_431
REMARK  134  A    between atoms: _340  and  _342
REMARK  135  A    between atoms: _342  and  _343
REMARK  136  A    between atoms: _342  and  _345
REMARK  137  A    between atoms: _345  and  _346
REMARK  138  A    between atoms: _348  and  _350
REMARK  139  A    between atoms: _350  and  _351
REMARK  140  A    between atoms: _354  and  _356
REMARK  141  A    between atoms: _356  and  _357
REMARK  142  A    between atoms: _359  and  _361
REMARK  143  A    between atoms: _361  and  _362
REMARK  144  A    between atoms: _361  and  _364
REMARK  145  A    between atoms: _364  and  _365
REMARK  146  A    between atoms: _368  and  _370
REMARK  147  A    between atoms: _370  and  _371
REMARK  148  A    between atoms: _370  and  _373
REMARK  149  A    between atoms: _373  and  _374
REMARK  150  A    between atoms: _374  and  _375
REMARK  151  A    between atoms: _378  and  _380
REMARK  152  A    between atoms: _380  and  _381
REMARK  153  A    between atoms: _380  and  _383
REMARK  154  A    between atoms: _383  and  _384
REMARK  155  A    between atoms: _389  and  _390
REMARK  156  A    between atoms: _392  and  _394
REMARK  157  A    between atoms: _394  and  _395
REMARK  158  A    between atoms: _394  and  _397
REMARK  159  A    between atoms: _397  and  _398
REMARK  160  A    between atoms: _404  and  _406
REMARK  161  A    between atoms: _406  and  _407
REMARK  162  A    between atoms: _406  and  _409
REMARK  163  A    between atoms: _409  and  _410
REMARK  164  A    between atoms: _413  and  _415
REMARK  165  A    between atoms: _415  and  _416
REMARK  166  A    between atoms: _415  and  _418
REMARK  167  A    between atoms: _418  and  _419
REMARK  168  A    between atoms: _422  and  _424
REMARK  169  A    between atoms: _424  and  _425
REMARK  170  A    between atoms: _424  and  _427
REMARK  171  A    between atoms: _427  and  _428
REMARK  172  A    between atoms: _428  and  _429
REMARK                            x       y       z     vdW  Elec       q    Type
REMARK                         _______ _______ _______ _____ _____    ______ ____
ROOT
ATOM      1  CG  TRP A   1      29.516  38.753  60.622  0.00  0.00    -0.002 A 
ATOM      2  CD2 TRP A   1      28.637  39.387  61.552  0.00  0.00    +0.013 A 
ATOM      3  CE3 TRP A   1      28.541  40.700  62.054  0.00  0.00    +0.001 A 
ATOM      4  CZ3 TRP A   1      27.551  40.995  63.002  0.00  0.00    +0.000 A 
ATOM      5  CH2 TRP A   1      26.641  40.006  63.438  0.00  0.00    +0.001 A 
ATOM      6  CZ2 TRP A   1      26.708  38.709  62.947  0.00  0.00    +0.017 A 
ATOM      7  CE2 TRP A   1      27.719  38.417  62.000  0.00  0.00    +0.056 A 
ATOM      8  NE1 TRP A   1      28.022  37.224  61.376  0.00  0.00    -0.352 N 
ATOM      9  HE1 TRP A   1      27.522  36.322  61.510  0.00  0.00    +0.166 HD
ATOM     10  CD1 TRP A   1      29.113  37.436  60.536  0.00  0.00    +0.068 A 
ENDROOT
BRANCH   1  11
ATOM     11  CB  TRP A   1      30.635  39.414  59.864  0.00  0.00    +0.053 C 
BRANCH  11  12
ATOM     12  CA  TRP A   1      30.119  40.080  58.567  0.00  0.00    +0.137 C 
BRANCH  12  13
ATOM     13  N   TRP A   1      29.906  39.093  57.502  0.00  0.00    -0.239 NA
ATOM     14  H   TRP A   1      30.322  38.145  57.601  0.00  0.00    +0.142 HD
ENDBRANCH  12  13
BRANCH  12  15
ATOM     15  C   TRP A   1      30.979  41.267  58.134  0.00  0.00    +0.224 C 
ATOM     16  O   TRP A   1      30.836  42.386  58.667  0.00  0.00    -0.287 OA
ENDBRANCH  12  15
ENDBRANCH  11  12
ENDBRANCH   1  11
TORSDOF 4
REMARK  Name = ../refined-set-2016/2jke/2jke_pocket.pdb
REMARK  172 active torsions:
REMARK  status: ('A' for Active; 'I' for Inactive)
REMARK    1  A    between atoms: _1  and  _3
REMARK    2  A    between atoms: _3  and  _4
REMARK    3  A    between atoms: _3  and  _6
REMARK    4  A    between atoms: _6  and  _7
REMARK    5  A    between atoms: _7  and  _8
REMARK    6  A    between atoms: _11  and  _13
REMARK    7  A    between atoms: _13  and  _14
REMARK    8  A    between atoms: _13  and  _16
REMARK    9  A    between atoms: _16  and  _17
REMARK   10  A    between atoms: _22  and  _24
REMARK   11  A    between atoms: _24  and  _25
REMARK   12  A    between atoms: _24  and  _27
REMARK   13  A    between atoms: _27  and  _28
REMARK   14  A    between atoms: _33  and  _34
REMARK   15  A    between atoms: _36  and  _38
REMARK   16  A    between atoms: _38  and  _39
REMARK   17  A    between atoms: _38  and  _41
REMARK   18  A    between atoms: _44  and  _46
REMARK   19  A    between atoms: _46  and  _47
REMARK   20  A    between atoms: _46  and  _49
REMARK   21  A    between atoms: _49  and  _50
REMARK   22  A    between atoms: _60  and  _62
REMARK   23  A    between atoms: _62  and  _63
REMARK   24  A    between atoms: _62  and  _65
REMARK   25  A    between atoms: _65  and  _66
REMARK   26  A    between atoms: _76  and  _78
REMARK   27  A    between atoms: _78  and  _79
REMARK   28  A    between atoms: _78  and  _81
REMARK   29  A    between atoms: _81  and  _82
REMARK   30  A    between atoms: _82  and  _83
REMARK   31  A    between atoms: _85  and  _87
REMARK   32  A    between atoms: _87  and  _88
REMARK   33  A    between atoms: _87  and  _90
REMARK   34  A    between atoms: _90  and  _91
REMARK   35  A    between atoms: _94  and  _96
REMARK   36  A    between atoms: _96  and  _97
REMARK   37  A    between atoms: _96  and  _99
REMARK   38  A    between atoms: _99  and  _100
REMARK   39  A    between atoms: _110  and  _112
REMARK   40  A    between atoms: _112  and  _113
REMARK   41  A    between atoms: _112  and  _115
REMARK   42  A    between atoms: _115  and  _116
REMARK   43  A    between atoms: _119  and  _121
REMARK   44  A    between atoms: _121  and  _122
REMARK   45  A    between atoms: _121  and  _124
REMARK   46  A    between atoms: _124  and  _125
REMARK   47  A    between atoms: _125  and  _126
REMARK   48  A    between atoms: _129  and  _131
REMARK   49  A    between atoms: _131  and  _132
REMARK   50  A    between atoms: _134  and  _136
REMARK   51  A    between atoms: _136  and  _137
REMARK   52  A    between atoms: _136  and  _139
REMARK   53  A    between atoms: _139  and  _140
REMARK   54  A    between atoms: _150  and  _152
REMARK   55  A    between atoms: _152  and  _153
REMARK   56  A    between atoms: _152  and  _155
REMARK   57  A    between atoms: _155  and  _156
REMARK   58  A    between atoms: _166  and  _168
REMARK   59  A    between atoms: _168  and  _169
REMARK   60  A    between atoms: _168  and  _171
REMARK   61  A    between atoms: _171  and  _172
REMARK   62  A    between atoms: _178  and  _180
REMARK   63  A    between atoms: _180  and  _181
REMARK   64  A    between atoms: _180  and  _183
REMARK   65  A    between atoms: _183  and  _184
REMARK   66  A    between atoms: _190  and  _192
REMARK   67  A    between atoms: _192  and  _193
REMARK   68  A    between atoms: _192  and  _195
REMARK   69  A    between atoms: _195  and  _196
REMARK   70  A    between atoms: _201  and  _203
REMARK   71  A    between atoms: _203  and  _204
REMARK   72  A    between atoms: _203  and  _206
REMARK   73  A    between atoms: _206  and  _207
REMARK   74  A    between atoms: _212  and  _214
REMARK   75  A    between atoms: _214  and  _215
REMARK   76  A    between atoms: _214  and  _217
REMARK   77  A    between atoms: _217  and  _218
REMARK   78  A    between atoms: _218  and  _219
REMARK   79  A    between atoms: _222  and  _224
REMARK   80  A    between atoms: _224  and  _225
REMARK   81  A    between atoms: _224  and  _227
REMARK   82  A    between atoms: _227  and  _228
REMARK   83  A    between atoms: _231  and  _233
REMARK   84  A    between atoms: _233  and  _234
REMARK   85  A    between atoms: _233  and  _236
REMARK   86  A    between atoms: _236  and  _237
REMARK   87  A    between atoms: _239  and  _241
REMARK   88  A    between atoms: _241  and  _242
REMARK   89  A    between atoms: _241  and  _244
REMARK   90  A    between atoms: _244  and  _245
REMARK   91  A    between atoms: _245  and  _246
REMARK   92  A    between atoms: _246  and  _247
REMARK   93  A    between atoms: _247  and  _248
REMARK   94  A    between atoms: _252  and  _254
REMARK   95  A    between atoms: _254  and  _255
REMARK   96  A    between atoms: _254  and  _257
REMARK   97  A    between atoms: _257  and  _258
REMARK   98  A    between atoms: _260  and  _262
REMARK   99  A    between atoms: _262  and  _263
REMARK  100  A    between atoms: _265  and  _267
REMARK  101  A    between atoms: _267  and  _268
REMARK  102  A    between atoms: _267  and  _270
REMARK  103  A    between atoms: _270  and  _271
REMARK  104  A    between atoms: _276  and  _277
REMARK  105  A    between atoms: _279  and  _281
REMARK  106  A    between atoms: _281  and  _282
REMARK  107  A    between atoms: _281  and  _284
REMARK  108  A    between atoms: _287  and  _289
REMARK  109  A    between atoms: _289  and  _290
REMARK  110  A    between atoms: _292  and  _294
REMARK  111  A    between atoms: _294  and  _295
REMARK  112  A    between atoms: _294  and  _297
REMARK  113  A    between atoms: _297  and  _298
REMARK  114  A    between atoms: _303  and  _305
REMARK  115  A    between atoms: _305  and  _306
REMARK  116  A    between atoms: _309  and  _311
REMARK  117  A    between atoms: _311  and  _312
REMARK  118  A    between atoms: _311  and  _314
REMARK  119  A    between atoms: _314  and  _315
REMARK  120  A    between atoms: _320  and  _322
REMARK  121  A    between atoms: _322  and  _323
REMARK  122  A    between atoms: _322  and  _325
REMARK  123  A    between atoms: _325  and  _326
REMARK  124  A    between atoms: _326  and  _327
REMARK  125  A    between atoms: _327  and  _329
REMARK  126  A    between atoms: _329  and  CA_431
REMARK  127  A    between atoms: _330  and  _332
REMARK  128  A    between atoms: _332  and  _333
REMARK  129  A    between atoms: _332  and  _335
REMARK  130  A    between atoms: _335  and  _336
REMARK  131  A    between atoms: _336  and  _337
REMARK  132  A    between atoms: _337  and  _338
REMARK  133  A    between atoms: _338  and  CA_431
REMARK  134  A    between atoms: _340  and  _342
REMARK  135  A    between atoms: _342  and  _343
REMARK  136  A    between atoms: _342  and  _345
REMARK  137  A    between atoms: _345  and  _346
REMARK  138  A    between atoms: _348  and  _350
REMARK  139  A    between atoms: _350  and  _351
REMARK  140  A    between atoms: _354  and  _356
REMARK  141  A    between atoms: _356  and  _357
REMARK  142  A    between atoms: _359  and  _361
REMARK  143  A    between atoms: _361  and  _362
REMARK  144  A    between atoms: _361  and  _364
REMARK  145  A    between atoms: _364  and  _365
REMARK  146  A    between atoms: _368  and  _370
REMARK  147  A    between atoms: _370  and  _371
REMARK  148  A    between atoms: _370  and  _373
REMARK  149  A    between atoms: _373  and  _374
REMARK  150  A    between atoms: _374  and  _375
REMARK  151  A    between atoms: _378  and  _380
REMARK  152  A    between atoms: _380  and  _381
REMARK  153  A    between atoms: _380  and  _383
REMARK  154  A    between atoms: _383  and  _384
REMARK  155  A    between atoms: _389  and  _390
REMARK  156  A    between atoms: _392  and  _394
REMARK  157  A    between atoms: _394  and  _395
REMARK  158  A    between atoms: _394  and  _397
REMARK  159  A    between atoms: _397  and  _398
REMARK  160  A    between atoms: _404  and  _406
REMARK  161  A    between atoms: _406  and  _407
REMARK  162  A    between atoms: _406  and  _409
REMARK  163  A    between atoms: _409  and  _410
REMARK  164  A    between atoms: _413  and  _415
REMARK  165  A    between atoms: _415  and  _416
REMARK  166  A    between atoms: _415  and  _418
REMARK  167  A    between atoms: _418  and  _419
REMARK  168  A    between atoms: _422  and  _424
REMARK  169  A    between atoms: _424  and  _425
REMARK  170  A    between atoms: _424  and  _427
REMARK  171  A    between atoms: _427  and  _428
REMARK  172  A    between atoms: _428  and  _429
REMARK                            x       y       z     vdW  Elec       q    Type
REMARK                         _______ _______ _______ _____ _____    ______ ____
ROOT
ATOM      1  CA  TRP A   1      26.936  43.935  58.203  0.00  0.00    +0.149 C 
ENDROOT
BRANCH   1   2
ATOM      2  C   TRP A   1      26.375  45.267  58.654  0.00  0.00    +0.239 C 
ATOM      3  O   TRP A   1      25.193  45.368  59.077  0.00  0.00    -0.274 OA
ATOM      4  N   PHE A   2      27.211  46.306  58.637  0.00  0.00    -0.298 N 
ATOM      5  H   PHE A   2      28.098  46.289  58.095  0.00  0.00    +0.150 HD
BRANCH   4   6
ATOM      6  CA  PHE A   2      26.810  47.467  59.421  0.00  0.00    +0.141 C 
BRANCH   6   7
ATOM      7  C   PHE A   2      26.565  48.719  58.586  0.00  0.00    +0.227 C 
ATOM      8  O   PHE A   2      27.470  49.239  57.949  0.00  0.00    -0.286 OA
ENDBRANCH   6   7
BRANCH   6   9
ATOM      9  CB  PHE A   2      27.825  47.727  60.544  0.00  0.00    +0.054 C 
BRANCH   9  10
ATOM     10  CG  PHE A   2      27.385  48.771  61.511  0.00  0.00    -0.020 A 
ATOM     11  CD2 PHE A   2      26.626  48.424  62.627  0.00  0.00    -0.004 A 
ATOM     12  CE2 PHE A   2      26.198  49.398  63.528  0.00  0.00    -0.000 A 
ATOM     13  CZ  PHE A   2      26.528  50.731  63.298  0.00  0.00    -0.000 A 
ATOM     14  CE1 PHE A   2      27.271  51.082  62.171  0.00  0.00    -0.000 A 
ATOM     15  CD1 PHE A   2      27.695  50.101  61.291  0.00  0.00    -0.004 A 
ENDBRANCH   9  10
ENDBRANCH   6   9
ENDBRANCH   4   6
ENDBRANCH   1   2
BRANCH   1  16
ATOM     16  N   TRP A   1      28.194  44.034  57.464  0.00  0.00    -0.238 NA
ATOM     17  H   TRP A   1      29.087  43.738  57.907  0.00  0.00    +0.142 HD
ENDBRANCH   1  16
BRANCH   1  18
ATOM     18  CB  TRP A   1      27.151  43.069  59.427  0.00  0.00    +0.054 C 
BRANCH  18  19
ATOM     19  CG  TRP A   1      27.796  43.717  60.622  0.00  0.00    -0.002 A 
ATOM     20  CD2 TRP A   1      27.145  44.105  61.825  0.00  0.00    +0.013 A 
ATOM     21  CE2 TRP A   1      28.125  44.601  62.696  0.00  0.00    +0.056 A 
ATOM     22  CZ2 TRP A   1      27.818  45.073  63.956  0.00  0.00    +0.017 A 
ATOM     23  CH2 TRP A   1      26.503  45.045  64.334  0.00  0.00    +0.001 A 
ATOM     24  CZ3 TRP A   1      25.510  44.563  63.477  0.00  0.00    +0.000 A 
ATOM     25  NE1 TRP A   1      29.345  44.511  62.061  0.00  0.00    -0.352 N 
ATOM     26  HE1 TRP A   1      30.259  44.811  62.456  0.00  0.00    +0.166 HD
ATOM     27  CE3 TRP A   1      25.803  44.103  62.244  0.00  0.00    +0.001 A 
ATOM     28  CD1 TRP A   1      29.151  43.961  60.824  0.00  0.00    +0.068 A 
ENDBRANCH  18  19
ENDBRANCH   1  18
TORSDOF 8
REMARK  Name = ../refined-set-2016/2jke/2jke_pocket.pdb
REMARK  172 active torsions:
REMARK  status: ('A' for Active; 'I' for Inactive)
REMARK    1  A    between atoms: _1  and  _3
REMARK    2  A    between atoms: _3  and  _4
REMARK    3  A    between atoms: _3  and  _6
REMARK    4  A    between atoms: _6  and  _7
REMARK    5  A    between atoms: _7  and  _8
REMARK    6  A    between atoms: _11  and  _13
REMARK    7  A    between atoms: _13  and  _14
REMARK    8  A    between atoms: _13  and  _16
REMARK    9  A    between atoms: _16  and  _17
REMARK   10  A    between atoms: _22  and  _24
REMARK   11  A    between atoms: _24  and  _25
REMARK   12  A    between atoms: _24  and  _27
REMARK   13  A    between atoms: _27  and  _28
REMARK   14  A    between atoms: _33  and  _34
REMARK   15  A    between atoms: _36  and  _38
REMARK   16  A    between atoms: _38  and  _39
REMARK   17  A    between atoms: _38  and  _41
REMARK   18  A    between atoms: _44  and  _46
REMARK   19  A    between atoms: _46  and  _47
REMARK   20  A    between atoms: _46  and  _49
REMARK   21  A    between atoms: _49  and  _50
REMARK   22  A    between atoms: _60  and  _62
REMARK   23  A    between atoms: _62  and  _63
REMARK   24  A    between atoms: _62  and  _65
REMARK   25  A    between atoms: _65  and  _66
REMARK   26  A    between atoms: _76  and  _78
REMARK   27  A    between atoms: _78  and  _79
REMARK   28  A    between atoms: _78  and  _81
REMARK   29  A    between atoms: _81  and  _82
REMARK   30  A    between atoms: _82  and  _83
REMARK   31  A    between atoms: _85  and  _87
REMARK   32  A    between atoms: _87  and  _88
REMARK   33  A    between atoms: _87  and  _90
REMARK   34  A    between atoms: _90  and  _91
REMARK   35  A    between atoms: _94  and  _96
REMARK   36  A    between atoms: _96  and  _97
REMARK   37  A    between atoms: _96  and  _99
REMARK   38  A    between atoms: _99  and  _100
REMARK   39  A    between atoms: _110  and  _112
REMARK   40  A    between atoms: _112  and  _113
REMARK   41  A    between atoms: _112  and  _115
REMARK   42  A    between atoms: _115  and  _116
REMARK   43  A    between atoms: _119  and  _121
REMARK   44  A    between atoms: _121  and  _122
REMARK   45  A    between atoms: _121  and  _124
REMARK   46  A    between atoms: _124  and  _125
REMARK   47  A    between atoms: _125  and  _126
REMARK   48  A    between atoms: _129  and  _131
REMARK   49  A    between atoms: _131  and  _132
REMARK   50  A    between atoms: _134  and  _136
REMARK   51  A    between atoms: _136  and  _137
REMARK   52  A    between atoms: _136  and  _139
REMARK   53  A    between atoms: _139  and  _140
REMARK   54  A    between atoms: _150  and  _152
REMARK   55  A    between atoms: _152  and  _153
REMARK   56  A    between atoms: _152  and  _155
REMARK   57  A    between atoms: _155  and  _156
REMARK   58  A    between atoms: _166  and  _168
REMARK   59  A    between atoms: _168  and  _169
REMARK   60  A    between atoms: _168  and  _171
REMARK   61  A    between atoms: _171  and  _172
REMARK   62  A    between atoms: _178  and  _180
REMARK   63  A    between atoms: _180  and  _181
REMARK   64  A    between atoms: _180  and  _183
REMARK   65  A    between atoms: _183  and  _184
REMARK   66  A    between atoms: _190  and  _192
REMARK   67  A    between atoms: _192  and  _193
REMARK   68  A    between atoms: _192  and  _195
REMARK   69  A    between atoms: _195  and  _196
REMARK   70  A    between atoms: _201  and  _203
REMARK   71  A    between atoms: _203  and  _204
REMARK   72  A    between atoms: _203  and  _206
REMARK   73  A    between atoms: _206  and  _207
REMARK   74  A    between atoms: _212  and  _214
REMARK   75  A    between atoms: _214  and  _215
REMARK   76  A    between atoms: _214  and  _217
REMARK   77  A    between atoms: _217  and  _218
REMARK   78  A    between atoms: _218  and  _219
REMARK   79  A    between atoms: _222  and  _224
REMARK   80  A    between atoms: _224  and  _225
REMARK   81  A    between atoms: _224  and  _227
REMARK   82  A    between atoms: _227  and  _228
REMARK   83  A    between atoms: _231  and  _233
REMARK   84  A    between atoms: _233  and  _234
REMARK   85  A    between atoms: _233  and  _236
REMARK   86  A    between atoms: _236  and  _237
REMARK   87  A    between atoms: _239  and  _241
REMARK   88  A    between atoms: _241  and  _242
REMARK   89  A    between atoms: _241  and  _244
REMARK   90  A    between atoms: _244  and  _245
REMARK   91  A    between atoms: _245  and  _246
REMARK   92  A    between atoms: _246  and  _247
REMARK   93  A    between atoms: _247  and  _248
REMARK   94  A    between atoms: _252  and  _254
REMARK   95  A    between atoms: _254  and  _255
REMARK   96  A    between atoms: _254  and  _257
REMARK   97  A    between atoms: _257  and  _258
REMARK   98  A    between atoms: _260  and  _262
REMARK   99  A    between atoms: _262  and  _263
REMARK  100  A    between atoms: _265  and  _267
REMARK  101  A    between atoms: _267  and  _268
REMARK  102  A    between atoms: _267  and  _270
REMARK  103  A    between atoms: _270  and  _271
REMARK  104  A    between atoms: _276  and  _277
REMARK  105  A    between atoms: _279  and  _281
REMARK  106  A    between atoms: _281  and  _282
REMARK  107  A    between atoms: _281  and  _284
REMARK  108  A    between atoms: _287  and  _289
REMARK  109  A    between atoms: _289  and  _290
REMARK  110  A    between atoms: _292  and  _294
REMARK  111  A    between atoms: _294  and  _295
REMARK  112  A    between atoms: _294  and  _297
REMARK  113  A    between atoms: _297  and  _298
REMARK  114  A    between atoms: _303  and  _305
REMARK  115  A    between atoms: _305  and  _306
REMARK  116  A    between atoms: _309  and  _311
REMARK  117  A    between atoms: _311  and  _312
REMARK  118  A    between atoms: _311  and  _314
REMARK  119  A    between atoms: _314  and  _315
REMARK  120  A    between atoms: _320  and  _322
REMARK  121  A    between atoms: _322  and  _323
REMARK  122  A    between atoms: _322  and  _325
REMARK  123  A    between atoms: _325  and  _326
REMARK  124  A    between atoms: _326  and  _327
REMARK  125  A    between atoms: _327  and  _329
REMARK  126  A    between atoms: _329  and  CA_431
REMARK  127  A    between atoms: _330  and  _332
REMARK  128  A    between atoms: _332  and  _333
REMARK  129  A    between atoms: _332  and  _335
REMARK  130  A    between atoms: _335  and  _336
REMARK  131  A    between atoms: _336  and  _337
REMARK  132  A    between atoms: _337  and  _338
REMARK  133  A    between atoms: _338  and  CA_431
REMARK  134  A    between atoms: _340  and  _342
REMARK  135  A    between atoms: _342  and  _343
REMARK  136  A    between atoms: _342  and  _345
REMARK  137  A    between atoms: _345  and  _346
REMARK  138  A    between atoms: _348  and  _350
REMARK  139  A    between atoms: _350  and  _351
REMARK  140  A    between atoms: _354  and  _356
REMARK  141  A    between atoms: _356  and  _357
REMARK  142  A    between atoms: _359  and  _361
REMARK  143  A    between atoms: _361  and  _362
REMARK  144  A    between atoms: _361  and  _364
REMARK  145  A    between atoms: _364  and  _365
REMARK  146  A    between atoms: _368  and  _370
REMARK  147  A    between atoms: _370  and  _371
REMARK  148  A    between atoms: _370  and  _373
REMARK  149  A    between atoms: _373  and  _374
REMARK  150  A    between atoms: _374  and  _375
REMARK  151  A    between atoms: _378  and  _380
REMARK  152  A    between atoms: _380  and  _381
REMARK  153  A    between atoms: _380  and  _383
REMARK  154  A    between atoms: _383  and  _384
REMARK  155  A    between atoms: _389  and  _390
REMARK  156  A    between atoms: _392  and  _394
REMARK  157  A    between atoms: _394  and  _395
REMARK  158  A    between atoms: _394  and  _397
REMARK  159  A    between atoms: _397  and  _398
REMARK  160  A    between atoms: _404  and  _406
REMARK  161  A    between atoms: _406  and  _407
REMARK  162  A    between atoms: _406  and  _409
REMARK  163  A    between atoms: _409  and  _410
REMARK  164  A    between atoms: _413  and  _415
REMARK  165  A    between atoms: _415  and  _416
REMARK  166  A    between atoms: _415  and  _418
REMARK  167  A    between atoms: _418  and  _419
REMARK  168  A    between atoms: _422  and  _424
REMARK  169  A    between atoms: _424  and  _425
REMARK  170  A    between atoms: _424  and  _427
REMARK  171  A    between atoms: _427  and  _428
REMARK  172  A    between atoms: _428  and  _429
REMARK                            x       y       z     vdW  Elec       q    Type
REMARK                         _______ _______ _______ _____ _____    ______ ____
ROOT
ATOM      1  CB  PHE A   1      23.257  37.100  56.772  0.00  0.00    +0.051 C 
ENDROOT
BRANCH   1   2
ATOM      2  CG  PHE A   1      24.114  38.046  57.556  0.00  0.00    -0.020 A 
ATOM      3  CD2 PHE A   1      23.560  39.172  58.181  0.00  0.00    -0.004 A 
ATOM      4  CE2 PHE A   1      24.356  40.028  58.972  0.00  0.00    -0.000 A 
ATOM      5  CZ  PHE A   1      25.732  39.759  59.146  0.00  0.00    -0.000 A 
ATOM      6  CE1 PHE A   1      26.290  38.621  58.500  0.00  0.00    -0.000 A 
ATOM      7  CD1 PHE A   1      25.469  37.779  57.740  0.00  0.00    -0.004 A 
ENDBRANCH   1   2
BRANCH   1   8
ATOM      8  CA  PHE A   1      23.534  37.080  55.253  0.00  0.00    +0.137 C 
BRANCH   8   9
ATOM      9  N   PHE A   1      23.162  38.356  54.615  0.00  0.00    -0.239 NA
ATOM     10  H   PHE A   1      22.175  38.502  54.322  0.00  0.00    +0.142 HD
ENDBRANCH   8   9
BRANCH   8  11
ATOM     11  C   PHE A   1      22.670  35.988  54.633  0.00  0.00    +0.224 C 
ATOM     12  O   PHE A   1      21.562  36.276  54.134  0.00  0.00    -0.287 OA
ENDBRANCH   8  11
ENDBRANCH   1   8
TORSDOF 4
REMARK  Name = ../refined-set-2016/2jke/2jke_pocket.pdb
REMARK  172 active torsions:
REMARK  status: ('A' for Active; 'I' for Inactive)
REMARK    1  A    between atoms: _1  and  _3
REMARK    2  A    between atoms: _3  and  _4
REMARK    3  A    between atoms: _3  and  _6
REMARK    4  A    between atoms: _6  and  _7
REMARK    5  A    between atoms: _7  and  _8
REMARK    6  A    between atoms: _11  and  _13
REMARK    7  A    between atoms: _13  and  _14
REMARK    8  A    between atoms: _13  and  _16
REMARK    9  A    between atoms: _16  and  _17
REMARK   10  A    between atoms: _22  and  _24
REMARK   11  A    between atoms: _24  and  _25
REMARK   12  A    between atoms: _24  and  _27
REMARK   13  A    between atoms: _27  and  _28
REMARK   14  A    between atoms: _33  and  _34
REMARK   15  A    between atoms: _36  and  _38
REMARK   16  A    between atoms: _38  and  _39
REMARK   17  A    between atoms: _38  and  _41
REMARK   18  A    between atoms: _44  and  _46
REMARK   19  A    between atoms: _46  and  _47
REMARK   20  A    between atoms: _46  and  _49
REMARK   21  A    between atoms: _49  and  _50
REMARK   22  A    between atoms: _60  and  _62
REMARK   23  A    between atoms: _62  and  _63
REMARK   24  A    between atoms: _62  and  _65
REMARK   25  A    between atoms: _65  and  _66
REMARK   26  A    between atoms: _76  and  _78
REMARK   27  A    between atoms: _78  and  _79
REMARK   28  A    between atoms: _78  and  _81
REMARK   29  A    between atoms: _81  and  _82
REMARK   30  A    between atoms: _82  and  _83
REMARK   31  A    between atoms: _85  and  _87
REMARK   32  A    between atoms: _87  and  _88
REMARK   33  A    between atoms: _87  and  _90
REMARK   34  A    between atoms: _90  and  _91
REMARK   35  A    between atoms: _94  and  _96
REMARK   36  A    between atoms: _96  and  _97
REMARK   37  A    between atoms: _96  and  _99
REMARK   38  A    between atoms: _99  and  _100
REMARK   39  A    between atoms: _110  and  _112
REMARK   40  A    between atoms: _112  and  _113
REMARK   41  A    between atoms: _112  and  _115
REMARK   42  A    between atoms: _115  and  _116
REMARK   43  A    between atoms: _119  and  _121
REMARK   44  A    between atoms: _121  and  _122
REMARK   45  A    between atoms: _121  and  _124
REMARK   46  A    between atoms: _124  and  _125
REMARK   47  A    between atoms: _125  and  _126
REMARK   48  A    between atoms: _129  and  _131
REMARK   49  A    between atoms: _131  and  _132
REMARK   50  A    between atoms: _134  and  _136
REMARK   51  A    between atoms: _136  and  _137
REMARK   52  A    between atoms: _136  and  _139
REMARK   53  A    between atoms: _139  and  _140
REMARK   54  A    between atoms: _150  and  _152
REMARK   55  A    between atoms: _152  and  _153
REMARK   56  A    between atoms: _152  and  _155
REMARK   57  A    between atoms: _155  and  _156
REMARK   58  A    between atoms: _166  and  _168
REMARK   59  A    between atoms: _168  and  _169
REMARK   60  A    between atoms: _168  and  _171
REMARK   61  A    between atoms: _171  and  _172
REMARK   62  A    between atoms: _178  and  _180
REMARK   63  A    between atoms: _180  and  _181
REMARK   64  A    between atoms: _180  and  _183
REMARK   65  A    between atoms: _183  and  _184
REMARK   66  A    between atoms: _190  and  _192
REMARK   67  A    between atoms: _192  and  _193
REMARK   68  A    between atoms: _192  and  _195
REMARK   69  A    between atoms: _195  and  _196
REMARK   70  A    between atoms: _201  and  _203
REMARK   71  A    between atoms: _203  and  _204
REMARK   72  A    between atoms: _203  and  _206
REMARK   73  A    between atoms: _206  and  _207
REMARK   74  A    between atoms: _212  and  _214
REMARK   75  A    between atoms: _214  and  _215
REMARK   76  A    between atoms: _214  and  _217
REMARK   77  A    between atoms: _217  and  _218
REMARK   78  A    between atoms: _218  and  _219
REMARK   79  A    between atoms: _222  and  _224
REMARK   80  A    between atoms: _224  and  _225
REMARK   81  A    between atoms: _224  and  _227
REMARK   82  A    between atoms: _227  and  _228
REMARK   83  A    between atoms: _231  and  _233
REMARK   84  A    between atoms: _233  and  _234
REMARK   85  A    between atoms: _233  and  _236
REMARK   86  A    between atoms: _236  and  _237
REMARK   87  A    between atoms: _239  and  _241
REMARK   88  A    between atoms: _241  and  _242
REMARK   89  A    between atoms: _241  and  _244
REMARK   90  A    between atoms: _244  and  _245
REMARK   91  A    between atoms: _245  and  _246
REMARK   92  A    between atoms: _246  and  _247
REMARK   93  A    between atoms: _247  and  _248
REMARK   94  A    between atoms: _252  and  _254
REMARK   95  A    between atoms: _254  and  _255
REMARK   96  A    between atoms: _254  and  _257
REMARK   97  A    between atoms: _257  and  _258
REMARK   98  A    between atoms: _260  and  _262
REMARK   99  A    between atoms: _262  and  _263
REMARK  100  A    between atoms: _265  and  _267
REMARK  101  A    between atoms: _267  and  _268
REMARK  102  A    between atoms: _267  and  _270
REMARK  103  A    between atoms: _270  and  _271
REMARK  104  A    between atoms: _276  and  _277
REMARK  105  A    between atoms: _279  and  _281
REMARK  106  A    between atoms: _281  and  _282
REMARK  107  A    between atoms: _281  and  _284
REMARK  108  A    between atoms: _287  and  _289
REMARK  109  A    between atoms: _289  and  _290
REMARK  110  A    between atoms: _292  and  _294
REMARK  111  A    between atoms: _294  and  _295
REMARK  112  A    between atoms: _294  and  _297
REMARK  113  A    between atoms: _297  and  _298
REMARK  114  A    between atoms: _303  and  _305
REMARK  115  A    between atoms: _305  and  _306
REMARK  116  A    between atoms: _309  and  _311
REMARK  117  A    between atoms: _311  and  _312
REMARK  118  A    between atoms: _311  and  _314
REMARK  119  A    between atoms: _314  and  _315
REMARK  120  A    between atoms: _320  and  _322
REMARK  121  A    between atoms: _322  and  _323
REMARK  122  A    between atoms: _322  and  _325
REMARK  123  A    between atoms: _325  and  _326
REMARK  124  A    between atoms: _326  and  _327
REMARK  125  A    between atoms: _327  and  _329
REMARK  126  A    between atoms: _329  and  CA_431
REMARK  127  A    between atoms: _330  and  _332
REMARK  128  A    between atoms: _332  and  _333
REMARK  129  A    between atoms: _332  and  _335
REMARK  130  A    between atoms: _335  and  _336
REMARK  131  A    between atoms: _336  and  _337
REMARK  132  A    between atoms: _337  and  _338
REMARK  133  A    between atoms: _338  and  CA_431
REMARK  134  A    between atoms: _340  and  _342
REMARK  135  A    between atoms: _342  and  _343
REMARK  136  A    between atoms: _342  and  _345
REMARK  137  A    between atoms: _345  and  _346
REMARK  138  A    between atoms: _348  and  _350
REMARK  139  A    between atoms: _350  and  _351
REMARK  140  A    between atoms: _354  and  _356
REMARK  141  A    between atoms: _356  and  _357
REMARK  142  A    between atoms: _359  and  _361
REMARK  143  A    between atoms: _361  and  _362
REMARK  144  A    between atoms: _361  and  _364
REMARK  145  A    between atoms: _364  and  _365
REMARK  146  A    between atoms: _368  and  _370
REMARK  147  A    between atoms: _370  and  _371
REMARK  148  A    between atoms: _370  and  _373
REMARK  149  A    between atoms: _373  and  _374
REMARK  150  A    between atoms: _374  and  _375
REMARK  151  A    between atoms: _378  and  _380
REMARK  152  A    between atoms: _380  and  _381
REMARK  153  A    between atoms: _380  and  _383
REMARK  154  A    between atoms: _383  and  _384
REMARK  155  A    between atoms: _389  and  _390
REMARK  156  A    between atoms: _392  and  _394
REMARK  157  A    between atoms: _394  and  _395
REMARK  158  A    between atoms: _394  and  _397
REMARK  159  A    between atoms: _397  and  _398
REMARK  160  A    between atoms: _404  and  _406
REMARK  161  A    between atoms: _406  and  _407
REMARK  162  A    between atoms: _406  and  _409
REMARK  163  A    between atoms: _409  and  _410
REMARK  164  A    between atoms: _413  and  _415
REMARK  165  A    between atoms: _415  and  _416
REMARK  166  A    between atoms: _415  and  _418
REMARK  167  A    between atoms: _418  and  _419
REMARK  168  A    between atoms: _422  and  _424
REMARK  169  A    between atoms: _424  and  _425
REMARK  170  A    between atoms: _424  and  _427
REMARK  171  A    between atoms: _427  and  _428
REMARK  172  A    between atoms: _428  and  _429
REMARK                            x       y       z     vdW  Elec       q    Type
REMARK                         _______ _______ _______ _____ _____    ______ ____
ROOT
ATOM      1  CA  GLU A   3      21.881  39.034  63.098  0.00  0.00    +0.149 C 
ENDROOT
BRANCH   1   2
ATOM      2  C   GLU A   3      21.355  39.184  61.665  0.00  0.00    +0.241 C 
ATOM      3  N   THR A   4      20.311  40.000  61.457  0.00  0.00    -0.295 N 
ATOM      4  H   THR A   4      19.880  40.479  62.273  0.00  0.00    +0.150 HD
ATOM      5  O   GLU A   3      21.876  38.562  60.744  0.00  0.00    -0.273 OA
BRANCH   3   6
ATOM      6  CA  THR A   4      19.752  40.243  60.118  0.00  0.00    +0.176 C 
BRANCH   6   7
ATOM      7  C   THR A   4      20.238  41.545  59.471  0.00  0.00    +0.243 C 
ATOM      8  N   SER A   5      20.878  42.387  60.261  0.00  0.00    -0.296 N 
ATOM      9  H   SER A   5      21.120  42.090  61.228  0.00  0.00    +0.150 HD
ATOM     10  O   THR A   4      20.007  41.782  58.286  0.00  0.00    -0.273 OA
BRANCH   8  11
ATOM     11  CA  SER A   5      21.254  43.719  59.814  0.00  0.00    +0.166 C 
BRANCH  11  12
ATOM     12  CB  SER A   5      20.009  44.447  59.298  0.00  0.00    +0.229 C 
ATOM     13  OG  SER A   5      20.069  45.245  58.369  0.00  0.00    -0.286 OA
ENDBRANCH  11  12
BRANCH  11  14
ATOM     14  C   SER A   5      22.352  43.617  58.766  0.00  0.00    +0.165 C 
BRANCH  14  15
ATOM     15  O   SER A   5      23.576  43.296  59.412  0.00  0.00    -0.380 OA
ATOM     16  H   SER A   5      23.800  44.006  60.064  0.00  0.00    +0.211 HD
ENDBRANCH  14  15
ENDBRANCH  11  14
ENDBRANCH   8  11
ENDBRANCH   6   7
BRANCH   6  17
ATOM     17  CB  THR A   4      18.197  40.376  60.152  0.00  0.00    +0.137 C 
ATOM     18  CG2 THR A   4      17.577  39.157  60.848  0.00  0.00    +0.034 C 
BRANCH  17  19
ATOM     19  OG1 THR A   4      17.845  41.567  60.887  0.00  0.00    -0.382 OA
ATOM     20  HG1 THR A   4      18.196  41.499  61.810  0.00  0.00    +0.210 HD
ENDBRANCH  17  19
ENDBRANCH   6  17
ENDBRANCH   3   6
ENDBRANCH   1   2
BRANCH   1  23
ATOM     21  C   HIS A   2      20.808  36.900  63.410  0.00  0.00    +0.241 C 
ATOM     22  O   HIS A   2      19.676  37.474  63.453  0.00  0.00    -0.273 OA
ATOM     23  N   GLU A   3      21.949  37.566  63.364  0.00  0.00    -0.297 N 
ATOM     24  H   GLU A   3      22.860  37.086  63.508  0.00  0.00    +0.150 HD
BRANCH  21  25
ATOM     25  CA  HIS A   2      20.901  35.376  63.348  0.00  0.00    +0.155 C 
BRANCH  25  27
ATOM     26  C   HIS A   1      22.566  34.079  64.659  0.00  0.00    +0.239 C 
ATOM     27  N   HIS A   2      21.481  34.849  64.594  0.00  0.00    -0.297 N 
ATOM     28  H   HIS A   2      21.010  35.096  65.488  0.00  0.00    +0.150 HD
ATOM     29  O   HIS A   1      23.179  33.672  63.657  0.00  0.00    -0.274 OA
BRANCH  26  30
ATOM     30  CA  HIS A   1      23.062  33.755  66.061  0.00  0.00    +0.151 C 
BRANCH  30  31
ATOM     31  N   HIS A   1      23.182  32.296  66.217  0.00  0.00    -0.238 NA
ATOM     32  H   HIS A   1      23.832  31.770  65.599  0.00  0.00    +0.142 HD
ENDBRANCH  30  31
BRANCH  30  33
ATOM     33  CB  HIS A   1      24.419  34.413  66.292  0.00  0.00    +0.074 C 
BRANCH  33  34
ATOM     34  CG  HIS A   1      24.355  35.905  66.355  0.00  0.00    +0.082 A 
ATOM     35  CD2 HIS A   1      23.440  36.737  66.920  0.00  0.00    +0.115 A 
ATOM     36  NE2 HIS A   1      23.881  38.020  66.706  0.00  0.00    -0.221 NA
ATOM     37  CE1 HIS A   1      24.988  37.980  65.976  0.00  0.00    +0.199 A 
ATOM     38  ND1 HIS A   1      25.295  36.716  65.750  0.00  0.00    -0.227 NA
ENDBRANCH  33  34
ENDBRANCH  30  33
ENDBRANCH  26  30
ENDBRANCH  25  27
BRANCH  25  39
ATOM     39  CB  HIS A   2      19.473  34.850  63.095  0.00  0.00    +0.076 C 
BRANCH  39  40
ATOM     40  CG  HIS A   2      19.408  33.407  62.693  0.00  0.00    +0.082 A 
ATOM     41  ND1 HIS A   2      18.212  32.733  62.586  0.00  0.00    -0.227 NA
ATOM     42  CE1 HIS A   2      18.442  31.483  62.212  0.00  0.00    +0.199 A 
ATOM     43  NE2 HIS A   2      19.752  31.316  62.090  0.00  0.00    -0.221 NA
ATOM     44  CD2 HIS A   2      20.381  32.506  62.395  0.00  0.00    +0.115 A 
ENDBRANCH  39  40
ENDBRANCH  25  39
ENDBRANCH  21  25
ENDBRANCH   1  23
BRANCH   1  45
ATOM     45  CB  GLU A   3      23.249  39.693  63.239  0.00  0.00    +0.041 C 
BRANCH  45  46
ATOM     46  CG  GLU A   3      23.284  41.125  62.691  0.00  0.00    +0.116 C 
BRANCH  46  47
ATOM     47  CD  GLU A   3      22.413  42.050  63.528  0.00  0.00    +0.365 C 
ATOM     48  OE2 GLU A   3      22.710  42.214  64.726  0.00  0.00    -0.246 OA
ATOM     49  OE1 GLU A   3      21.445  42.623  62.975  0.00  0.00    -0.246 OA
ENDBRANCH  46  47
ENDBRANCH  45  46
ENDBRANCH   1  45
TORSDOF 21
REMARK  Name = ../refined-set-2016/2jke/2jke_pocket.pdb
REMARK  172 active torsions:
REMARK  status: ('A' for Active; 'I' for Inactive)
REMARK    1  A    between atoms: _1  and  _3
REMARK    2  A    between atoms: _3  and  _4
REMARK    3  A    between atoms: _3  and  _6
REMARK    4  A    between atoms: _6  and  _7
REMARK    5  A    between atoms: _7  and  _8
REMARK    6  A    between atoms: _11  and  _13
REMARK    7  A    between atoms: _13  and  _14
REMARK    8  A    between atoms: _13  and  _16
REMARK    9  A    between atoms: _16  and  _17
REMARK   10  A    between atoms: _22  and  _24
REMARK   11  A    between atoms: _24  and  _25
REMARK   12  A    between atoms: _24  and  _27
REMARK   13  A    between atoms: _27  and  _28
REMARK   14  A    between atoms: _33  and  _34
REMARK   15  A    between atoms: _36  and  _38
REMARK   16  A    between atoms: _38  and  _39
REMARK   17  A    between atoms: _38  and  _41
REMARK   18  A    between atoms: _44  and  _46
REMARK   19  A    between atoms: _46  and  _47
REMARK   20  A    between atoms: _46  and  _49
REMARK   21  A    between atoms: _49  and  _50
REMARK   22  A    between atoms: _60  and  _62
REMARK   23  A    between atoms: _62  and  _63
REMARK   24  A    between atoms: _62  and  _65
REMARK   25  A    between atoms: _65  and  _66
REMARK   26  A    between atoms: _76  and  _78
REMARK   27  A    between atoms: _78  and  _79
REMARK   28  A    between atoms: _78  and  _81
REMARK   29  A    between atoms: _81  and  _82
REMARK   30  A    between atoms: _82  and  _83
REMARK   31  A    between atoms: _85  and  _87
REMARK   32  A    between atoms: _87  and  _88
REMARK   33  A    between atoms: _87  and  _90
REMARK   34  A    between atoms: _90  and  _91
REMARK   35  A    between atoms: _94  and  _96
REMARK   36  A    between atoms: _96  and  _97
REMARK   37  A    between atoms: _96  and  _99
REMARK   38  A    between atoms: _99  and  _100
REMARK   39  A    between atoms: _110  and  _112
REMARK   40  A    between atoms: _112  and  _113
REMARK   41  A    between atoms: _112  and  _115
REMARK   42  A    between atoms: _115  and  _116
REMARK   43  A    between atoms: _119  and  _121
REMARK   44  A    between atoms: _121  and  _122
REMARK   45  A    between atoms: _121  and  _124
REMARK   46  A    between atoms: _124  and  _125
REMARK   47  A    between atoms: _125  and  _126
REMARK   48  A    between atoms: _129  and  _131
REMARK   49  A    between atoms: _131  and  _132
REMARK   50  A    between atoms: _134  and  _136
REMARK   51  A    between atoms: _136  and  _137
REMARK   52  A    between atoms: _136  and  _139
REMARK   53  A    between atoms: _139  and  _140
REMARK   54  A    between atoms: _150  and  _152
REMARK   55  A    between atoms: _152  and  _153
REMARK   56  A    between atoms: _152  and  _155
REMARK   57  A    between atoms: _155  and  _156
REMARK   58  A    between atoms: _166  and  _168
REMARK   59  A    between atoms: _168  and  _169
REMARK   60  A    between atoms: _168  and  _171
REMARK   61  A    between atoms: _171  and  _172
REMARK   62  A    between atoms: _178  and  _180
REMARK   63  A    between atoms: _180  and  _181
REMARK   64  A    between atoms: _180  and  _183
REMARK   65  A    between atoms: _183  and  _184
REMARK   66  A    between atoms: _190  and  _192
REMARK   67  A    between atoms: _192  and  _193
REMARK   68  A    between atoms: _192  and  _195
REMARK   69  A    between atoms: _195  and  _196
REMARK   70  A    between atoms: _201  and  _203
REMARK   71  A    between atoms: _203  and  _204
REMARK   72  A    between atoms: _203  and  _206
REMARK   73  A    between atoms: _206  and  _207
REMARK   74  A    between atoms: _212  and  _214
REMARK   75  A    between atoms: _214  and  _215
REMARK   76  A    between atoms: _214  and  _217
REMARK   77  A    between atoms: _217  and  _218
REMARK   78  A    between atoms: _218  and  _219
REMARK   79  A    between atoms: _222  and  _224
REMARK   80  A    between atoms: _224  and  _225
REMARK   81  A    between atoms: _224  and  _227
REMARK   82  A    between atoms: _227  and  _228
REMARK   83  A    between atoms: _231  and  _233
REMARK   84  A    between atoms: _233  and  _234
REMARK   85  A    between atoms: _233  and  _236
REMARK   86  A    between atoms: _236  and  _237
REMARK   87  A    between atoms: _239  and  _241
REMARK   88  A    between atoms: _241  and  _242
REMARK   89  A    between atoms: _241  and  _244
REMARK   90  A    between atoms: _244  and  _245
REMARK   91  A    between atoms: _245  and  _246
REMARK   92  A    between atoms: _246  and  _247
REMARK   93  A    between atoms: _247  and  _248
REMARK   94  A    between atoms: _252  and  _254
REMARK   95  A    between atoms: _254  and  _255
REMARK   96  A    between atoms: _254  and  _257
REMARK   97  A    between atoms: _257  and  _258
REMARK   98  A    between atoms: _260  and  _262
REMARK   99  A    between atoms: _262  and  _263
REMARK  100  A    between atoms: _265  and  _267
REMARK  101  A    between atoms: _267  and  _268
REMARK  102  A    between atoms: _267  and  _270
REMARK  103  A    between atoms: _270  and  _271
REMARK  104  A    between atoms: _276  and  _277
REMARK  105  A    between atoms: _279  and  _281
REMARK  106  A    between atoms: _281  and  _282
REMARK  107  A    between atoms: _281  and  _284
REMARK  108  A    between atoms: _287  and  _289
REMARK  109  A    between atoms: _289  and  _290
REMARK  110  A    between atoms: _292  and  _294
REMARK  111  A    between atoms: _294  and  _295
REMARK  112  A    between atoms: _294  and  _297
REMARK  113  A    between atoms: _297  and  _298
REMARK  114  A    between atoms: _303  and  _305
REMARK  115  A    between atoms: _305  and  _306
REMARK  116  A    between atoms: _309  and  _311
REMARK  117  A    between atoms: _311  and  _312
REMARK  118  A    between atoms: _311  and  _314
REMARK  119  A    between atoms: _314  and  _315
REMARK  120  A    between atoms: _320  and  _322
REMARK  121  A    between atoms: _322  and  _323
REMARK  122  A    between atoms: _322  and  _325
REMARK  123  A    between atoms: _325  and  _326
REMARK  124  A    between atoms: _326  and  _327
REMARK  125  A    between atoms: _327  and  _329
REMARK  126  A    between atoms: _329  and  CA_431
REMARK  127  A    between atoms: _330  and  _332
REMARK  128  A    between atoms: _332  and  _333
REMARK  129  A    between atoms: _332  and  _335
REMARK  130  A    between atoms: _335  and  _336
REMARK  131  A    between atoms: _336  and  _337
REMARK  132  A    between atoms: _337  and  _338
REMARK  133  A    between atoms: _338  and  CA_431
REMARK  134  A    between atoms: _340  and  _342
REMARK  135  A    between atoms: _342  and  _343
REMARK  136  A    between atoms: _342  and  _345
REMARK  137  A    between atoms: _345  and  _346
REMARK  138  A    between atoms: _348  and  _350
REMARK  139  A    between atoms: _350  and  _351
REMARK  140  A    between atoms: _354  and  _356
REMARK  141  A    between atoms: _356  and  _357
REMARK  142  A    between atoms: _359  and  _361
REMARK  143  A    between atoms: _361  and  _362
REMARK  144  A    between atoms: _361  and  _364
REMARK  145  A    between atoms: _364  and  _365
REMARK  146  A    between atoms: _368  and  _370
REMARK  147  A    between atoms: _370  and  _371
REMARK  148  A    between atoms: _370  and  _373
REMARK  149  A    between atoms: _373  and  _374
REMARK  150  A    between atoms: _374  and  _375
REMARK  151  A    between atoms: _378  and  _380
REMARK  152  A    between atoms: _380  and  _381
REMARK  153  A    between atoms: _380  and  _383
REMARK  154  A    between atoms: _383  and  _384
REMARK  155  A    between atoms: _389  and  _390
REMARK  156  A    between atoms: _392  and  _394
REMARK  157  A    between atoms: _394  and  _395
REMARK  158  A    between atoms: _394  and  _397
REMARK  159  A    between atoms: _397  and  _398
REMARK  160  A    between atoms: _404  and  _406
REMARK  161  A    between atoms: _406  and  _407
REMARK  162  A    between atoms: _406  and  _409
REMARK  163  A    between atoms: _409  and  _410
REMARK  164  A    between atoms: _413  and  _415
REMARK  165  A    between atoms: _415  and  _416
REMARK  166  A    between atoms: _415  and  _418
REMARK  167  A    between atoms: _418  and  _419
REMARK  168  A    between atoms: _422  and  _424
REMARK  169  A    between atoms: _424  and  _425
REMARK  170  A    between atoms: _424  and  _427
REMARK  171  A    between atoms: _427  and  _428
REMARK  172  A    between atoms: _428  and  _429
REMARK                            x       y       z     vdW  Elec       q    Type
REMARK                         _______ _______ _______ _____ _____    ______ ____
ROOT
ATOM      1  C   GLY A   3      18.623  41.669  64.528  0.00  0.00    +0.243 C 
ATOM      2  N   TYR A   4      18.377  42.962  64.737  0.00  0.00    -0.297 N 
ATOM      3  H   TYR A   4      18.554  43.366  65.679  0.00  0.00    +0.150 HD
ATOM      4  O   GLY A   3      18.477  41.107  63.430  0.00  0.00    -0.273 OA
ENDROOT
BRANCH   2   5
ATOM      5  CA  TYR A   4      17.867  43.822  63.679  0.00  0.00    +0.153 C 
BRANCH   5   6
ATOM      6  C   TYR A   4      18.572  45.167  63.687  0.00  0.00    +0.241 C 
ATOM      7  O   TYR A   4      17.942  46.228  63.792  0.00  0.00    -0.273 OA
ATOM      8  N   VAL A   5      19.900  45.113  63.573  0.00  0.00    -0.297 N 
ATOM      9  H   VAL A   5      20.388  44.200  63.471  0.00  0.00    +0.150 HD
BRANCH   8  10
ATOM     10  CA  VAL A   5      20.654  46.365  63.595  0.00  0.00    +0.149 C 
BRANCH  10  11
ATOM     11  C   VAL A   5      20.671  47.098  62.246  0.00  0.00    +0.241 C 
ATOM     12  N   GLY A   6      20.213  48.349  62.256  0.00  0.00    -0.296 N 
ATOM     13  H   GLY A   6      19.879  48.754  63.154  0.00  0.00    +0.150 HD
ATOM     14  O   VAL A   5      21.086  46.554  61.223  0.00  0.00    -0.273 OA
BRANCH  12  15
ATOM     15  CA  GLY A   6      20.163  49.172  61.051  0.00  0.00    +0.163 C 
BRANCH  15  16
ATOM     16  C   GLY A   6      18.752  49.626  60.769  0.00  0.00    +0.229 C 
ATOM     17  O   GLY A   6      17.811  49.175  61.424  0.00  0.00    -0.286 OA
ENDBRANCH  15  16
ENDBRANCH  12  15
ENDBRANCH  10  11
BRANCH  10  18
ATOM     18  CB  VAL A   5      22.122  46.061  64.061  0.00  0.00    +0.027 C 
ATOM     19  CG2 VAL A   5      22.086  45.592  65.503  0.00  0.00    +0.002 C 
ATOM     20  CG1 VAL A   5      22.956  47.339  63.836  0.00  0.00    +0.002 C 
ENDBRANCH  10  18
ENDBRANCH   8  10
ENDBRANCH   5   6
BRANCH   5  21
ATOM     21  CB  TYR A   4      16.329  44.003  63.792  0.00  0.00    +0.055 C 
BRANCH  21  22
ATOM     22  CG  TYR A   4      15.570  42.684  63.660  0.00  0.00    -0.020 A 
ATOM     23  CD2 TYR A   4      15.418  41.854  64.771  0.00  0.00    -0.001 A 
ATOM     24  CE2 TYR A   4      14.755  40.613  64.672  0.00  0.00    +0.036 A 
ATOM     25  CZ  TYR A   4      14.252  40.236  63.461  0.00  0.00    +0.134 A 
ATOM     26  CE1 TYR A   4      14.383  41.032  62.319  0.00  0.00    +0.036 A 
ATOM     27  CD1 TYR A   4      15.056  42.256  62.417  0.00  0.00    -0.001 A 
BRANCH  25  28
ATOM     28  OH  TYR A   4      13.600  39.018  63.345  0.00  0.00    -0.506 OA
ATOM     29  HH  TYR A   4      14.221  38.288  63.591  0.00  0.00    +0.292 HD
ENDBRANCH  25  28
ENDBRANCH  21  22
ENDBRANCH   5  21
ENDBRANCH   2   5
BRANCH   1  30
ATOM     30  CA  GLY A   3      19.104  40.898  65.735  0.00  0.00    +0.176 C 
BRANCH  30  33
ATOM     31  C   SER A   2      18.640  38.698  66.679  0.00  0.00    +0.243 C 
ATOM     32  O   SER A   2      18.800  39.126  67.832  0.00  0.00    -0.273 OA
ATOM     33  N   GLY A   3      18.736  39.470  65.603  0.00  0.00    -0.295 N 
ATOM     34  H   GLY A   3      18.551  39.069  64.661  0.00  0.00    +0.150 HD
BRANCH  31  35
ATOM     35  CA  SER A   2      18.330  37.236  66.401  0.00  0.00    +0.178 C 
BRANCH  35  37
ATOM     36  C   LYS A   1      19.504  35.731  67.874  0.00  0.00    +0.238 C 
ATOM     37  N   SER A   2      18.416  36.468  67.630  0.00  0.00    -0.295 N 
ATOM     38  H   SER A   2      17.635  36.491  68.317  0.00  0.00    +0.150 HD
ATOM     39  O   LYS A   1      20.405  35.594  67.051  0.00  0.00    -0.274 OA
BRANCH  36  40
ATOM     40  CA  LYS A   1      19.582  35.041  69.219  0.00  0.00    +0.145 C 
BRANCH  40  41
ATOM     41  N   LYS A   1      19.581  33.623  68.909  0.00  0.00    -0.238 NA
ATOM     42  H   LYS A   1      20.468  33.189  68.582  0.00  0.00    +0.142 HD
ENDBRANCH  40  41
BRANCH  40  43
ATOM     43  CB  LYS A   1      20.893  35.411  69.915  0.00  0.00    +0.026 C 
BRANCH  43  44
ATOM     44  CG  LYS A   1      21.214  36.888  69.972  0.00  0.00    -0.000 C 
BRANCH  44  45
ATOM     45  CD  LYS A   1      22.603  37.079  70.597  0.00  0.00    -0.024 C 
BRANCH  45  46
ATOM     46  CE  LYS A   1      22.776  38.462  71.137  0.00  0.00    -0.086 C 
BRANCH  46  47
ATOM     47  NZ  LYS A   1      22.986  39.374  70.017  0.00  0.00    +0.380 N 
ATOM     48  HZ1 LYS A   1      23.108  40.342  70.378  0.00  0.00    -0.089 HD
ATOM     49  HZ2 LYS A   1      23.838  39.088  69.493  0.00  0.00    -0.089 HD
ATOM     50  HZ3 LYS A   1      22.161  39.340  69.385  0.00  0.00    -0.089 HD
ENDBRANCH  46  47
ENDBRANCH  45  46
ENDBRANCH  44  45
ENDBRANCH  43  44
ENDBRANCH  40  43
ENDBRANCH  36  40
ENDBRANCH  35  37
BRANCH  35  51
ATOM     51  CB  SER A   2      16.918  37.102  65.789  0.00  0.00    +0.166 C 
BRANCH  51  52
ATOM     52  OG  SER A   2      15.955  37.625  66.703  0.00  0.00    -0.380 OA
ATOM     53  H   SER A   2      15.050  37.540  66.312  0.00  0.00    +0.211 HD
ENDBRANCH  51  52
ENDBRANCH  35  51
ENDBRANCH  31  35
ENDBRANCH  30  33
ENDBRANCH   1  30
TORSDOF 23
REMARK  Name = ../refined-set-2016/2jke/2jke_pocket.pdb
REMARK  172 active torsions:
REMARK  status: ('A' for Active; 'I' for Inactive)
REMARK    1  A    between atoms: _1  and  _3
REMARK    2  A    between atoms: _3  and  _4
REMARK    3  A    between atoms: _3  and  _6
REMARK    4  A    between atoms: _6  and  _7
REMARK    5  A    between atoms: _7  and  _8
REMARK    6  A    between atoms: _11  and  _13
REMARK    7  A    between atoms: _13  and  _14
REMARK    8  A    between atoms: _13  and  _16
REMARK    9  A    between atoms: _16  and  _17
REMARK   10  A    between atoms: _22  and  _24
REMARK   11  A    between atoms: _24  and  _25
REMARK   12  A    between atoms: _24  and  _27
REMARK   13  A    between atoms: _27  and  _28
REMARK   14  A    between atoms: _33  and  _34
REMARK   15  A    between atoms: _36  and  _38
REMARK   16  A    between atoms: _38  and  _39
REMARK   17  A    between atoms: _38  and  _41
REMARK   18  A    between atoms: _44  and  _46
REMARK   19  A    between atoms: _46  and  _47
REMARK   20  A    between atoms: _46  and  _49
REMARK   21  A    between atoms: _49  and  _50
REMARK   22  A    between atoms: _60  and  _62
REMARK   23  A    between atoms: _62  and  _63
REMARK   24  A    between atoms: _62  and  _65
REMARK   25  A    between atoms: _65  and  _66
REMARK   26  A    between atoms: _76  and  _78
REMARK   27  A    between atoms: _78  and  _79
REMARK   28  A    between atoms: _78  and  _81
REMARK   29  A    between atoms: _81  and  _82
REMARK   30  A    between atoms: _82  and  _83
REMARK   31  A    between atoms: _85  and  _87
REMARK   32  A    between atoms: _87  and  _88
REMARK   33  A    between atoms: _87  and  _90
REMARK   34  A    between atoms: _90  and  _91
REMARK   35  A    between atoms: _94  and  _96
REMARK   36  A    between atoms: _96  and  _97
REMARK   37  A    between atoms: _96  and  _99
REMARK   38  A    between atoms: _99  and  _100
REMARK   39  A    between atoms: _110  and  _112
REMARK   40  A    between atoms: _112  and  _113
REMARK   41  A    between atoms: _112  and  _115
REMARK   42  A    between atoms: _115  and  _116
REMARK   43  A    between atoms: _119  and  _121
REMARK   44  A    between atoms: _121  and  _122
REMARK   45  A    between atoms: _121  and  _124
REMARK   46  A    between atoms: _124  and  _125
REMARK   47  A    between atoms: _125  and  _126
REMARK   48  A    between atoms: _129  and  _131
REMARK   49  A    between atoms: _131  and  _132
REMARK   50  A    between atoms: _134  and  _136
REMARK   51  A    between atoms: _136  and  _137
REMARK   52  A    between atoms: _136  and  _139
REMARK   53  A    between atoms: _139  and  _140
REMARK   54  A    between atoms: _150  and  _152
REMARK   55  A    between atoms: _152  and  _153
REMARK   56  A    between atoms: _152  and  _155
REMARK   57  A    between atoms: _155  and  _156
REMARK   58  A    between atoms: _166  and  _168
REMARK   59  A    between atoms: _168  and  _169
REMARK   60  A    between atoms: _168  and  _171
REMARK   61  A    between atoms: _171  and  _172
REMARK   62  A    between atoms: _178  and  _180
REMARK   63  A    between atoms: _180  and  _181
REMARK   64  A    between atoms: _180  and  _183
REMARK   65  A    between atoms: _183  and  _184
REMARK   66  A    between atoms: _190  and  _192
REMARK   67  A    between atoms: _192  and  _193
REMARK   68  A    between atoms: _192  and  _195
REMARK   69  A    between atoms: _195  and  _196
REMARK   70  A    between atoms: _201  and  _203
REMARK   71  A    between atoms: _203  and  _204
REMARK   72  A    between atoms: _203  and  _206
REMARK   73  A    between atoms: _206  and  _207
REMARK   74  A    between atoms: _212  and  _214
REMARK   75  A    between atoms: _214  and  _215
REMARK   76  A    between atoms: _214  and  _217
REMARK   77  A    between atoms: _217  and  _218
REMARK   78  A    between atoms: _218  and  _219
REMARK   79  A    between atoms: _222  and  _224
REMARK   80  A    between atoms: _224  and  _225
REMARK   81  A    between atoms: _224  and  _227
REMARK   82  A    between atoms: _227  and  _228
REMARK   83  A    between atoms: _231  and  _233
REMARK   84  A    between atoms: _233  and  _234
REMARK   85  A    between atoms: _233  and  _236
REMARK   86  A    between atoms: _236  and  _237
REMARK   87  A    between atoms: _239  and  _241
REMARK   88  A    between atoms: _241  and  _242
REMARK   89  A    between atoms: _241  and  _244
REMARK   90  A    between atoms: _244  and  _245
REMARK   91  A    between atoms: _245  and  _246
REMARK   92  A    between atoms: _246  and  _247
REMARK   93  A    between atoms: _247  and  _248
REMARK   94  A    between atoms: _252  and  _254
REMARK   95  A    between atoms: _254  and  _255
REMARK   96  A    between atoms: _254  and  _257
REMARK   97  A    between atoms: _257  and  _258
REMARK   98  A    between atoms: _260  and  _262
REMARK   99  A    between atoms: _262  and  _263
REMARK  100  A    between atoms: _265  and  _267
REMARK  101  A    between atoms: _267  and  _268
REMARK  102  A    between atoms: _267  and  _270
REMARK  103  A    between atoms: _270  and  _271
REMARK  104  A    between atoms: _276  and  _277
REMARK  105  A    between atoms: _279  and  _281
REMARK  106  A    between atoms: _281  and  _282
REMARK  107  A    between atoms: _281  and  _284
REMARK  108  A    between atoms: _287  and  _289
REMARK  109  A    between atoms: _289  and  _290
REMARK  110  A    between atoms: _292  and  _294
REMARK  111  A    between atoms: _294  and  _295
REMARK  112  A    between atoms: _294  and  _297
REMARK  113  A    between atoms: _297  and  _298
REMARK  114  A    between atoms: _303  and  _305
REMARK  115  A    between atoms: _305  and  _306
REMARK  116  A    between atoms: _309  and  _311
REMARK  117  A    between atoms: _311  and  _312
REMARK  118  A    between atoms: _311  and  _314
REMARK  119  A    between atoms: _314  and  _315
REMARK  120  A    between atoms: _320  and  _322
REMARK  121  A    between atoms: _322  and  _323
REMARK  122  A    between atoms: _322  and  _325
REMARK  123  A    between atoms: _325  and  _326
REMARK  124  A    between atoms: _326  and  _327
REMARK  125  A    between atoms: _327  and  _329
REMARK  126  A    between atoms: _329  and  CA_431
REMARK  127  A    between atoms: _330  and  _332
REMARK  128  A    between atoms: _332  and  _333
REMARK  129  A    between atoms: _332  and  _335
REMARK  130  A    between atoms: _335  and  _336
REMARK  131  A    between atoms: _336  and  _337
REMARK  132  A    between atoms: _337  and  _338
REMARK  133  A    between atoms: _338  and  CA_431
REMARK  134  A    between atoms: _340  and  _342
REMARK  135  A    between atoms: _342  and  _343
REMARK  136  A    between atoms: _342  and  _345
REMARK  137  A    between atoms: _345  and  _346
REMARK  138  A    between atoms: _348  and  _350
REMARK  139  A    between atoms: _350  and  _351
REMARK  140  A    between atoms: _354  and  _356
REMARK  141  A    between atoms: _356  and  _357
REMARK  142  A    between atoms: _359  and  _361
REMARK  143  A    between atoms: _361  and  _362
REMARK  144  A    between atoms: _361  and  _364
REMARK  145  A    between atoms: _364  and  _365
REMARK  146  A    between atoms: _368  and  _370
REMARK  147  A    between atoms: _370  and  _371
REMARK  148  A    between atoms: _370  and  _373
REMARK  149  A    between atoms: _373  and  _374
REMARK  150  A    between atoms: _374  and  _375
REMARK  151  A    between atoms: _378  and  _380
REMARK  152  A    between atoms: _380  and  _381
REMARK  153  A    between atoms: _380  and  _383
REMARK  154  A    between atoms: _383  and  _384
REMARK  155  A    between atoms: _389  and  _390
REMARK  156  A    between atoms: _392  and  _394
REMARK  157  A    between atoms: _394  and  _395
REMARK  158  A    between atoms: _394  and  _397
REMARK  159  A    between atoms: _397  and  _398
REMARK  160  A    between atoms: _404  and  _406
REMARK  161  A    between atoms: _406  and  _407
REMARK  162  A    between atoms: _406  and  _409
REMARK  163  A    between atoms: _409  and  _410
REMARK  164  A    between atoms: _413  and  _415
REMARK  165  A    between atoms: _415  and  _416
REMARK  166  A    between atoms: _415  and  _418
REMARK  167  A    between atoms: _418  and  _419
REMARK  168  A    between atoms: _422  and  _424
REMARK  169  A    between atoms: _424  and  _425
REMARK  170  A    between atoms: _424  and  _427
REMARK  171  A    between atoms: _427  and  _428
REMARK  172  A    between atoms: _428  and  _429
REMARK                            x       y       z     vdW  Elec       q    Type
REMARK                         _______ _______ _______ _____ _____    ______ ____
ROOT
ATOM      1  C   UNK A   4      16.235  45.248  68.490  0.00  0.00    +0.000 C 
ENDROOT
BRANCH   1   3
ATOM      2  C   ALA A   3      16.961  42.878  68.900  0.00  0.00    +0.000 C 
ATOM      3  N   UNK A   4      16.801  44.145  69.308  0.00  0.00    +0.000 N 
ATOM      4  H   UNK A   4      17.098  44.375  70.278  0.00  0.00    +0.000 HD
ATOM      5  O   ALA A   3      16.609  42.454  67.781  0.00  0.00    +0.000 OA
BRANCH   2   6
ATOM      6  CA  ALA A   3      17.559  41.915  69.949  0.00  0.00    +0.000 C 
BRANCH   6   9
ATOM      7  C   SER A   2      15.851  40.208  70.026  0.00  0.00    +0.000 C 
ATOM      8  O   SER A   2      15.123  40.931  70.704  0.00  0.00    +0.000 OA
ATOM      9  N   ALA A   3      17.065  40.584  69.673  0.00  0.00    +0.000 N 
ATOM     10  H   ALA A   3      17.683  39.906  69.183  0.00  0.00    +0.000 HD
BRANCH   7  11
ATOM     11  CA  SER A   2      15.377  38.824  69.559  0.00  0.00    +0.000 C 
ATOM     12  CB  SER A   2      14.038  38.970  68.716  0.00  0.00    +0.000 C 
BRANCH  11  14
ATOM     13  C   UNK A   1      16.028  36.867  70.796  0.00  0.00    +0.000 C 
ATOM     14  N   SER A   2      15.167  37.874  70.666  0.00  0.00    +0.000 N 
ATOM     15  H   SER A   2      14.371  37.987  71.325  0.00  0.00    +0.000 HD
ATOM     16  O   UNK A   1      17.069  36.803  70.132  0.00  0.00    +0.000 OA
BRANCH  13  17
ATOM     17  C   UNK A   1      15.735  35.804  71.812  0.00  0.00    +0.000 C 
BRANCH  17  18
ATOM     18  N   UNK A   1      15.374  34.597  71.043  0.00  0.00    +0.000 NA
ATOM     19  H   UNK A   1      16.031  34.271  70.306  0.00  0.00    +0.000 HD
ENDBRANCH  17  18
BRANCH  17  20
ATOM     20  C   UNK A   1      17.014  35.550  72.607  0.00  0.00    +0.000 C 
BRANCH  20  21
ATOM     21  C   UNK A   1      17.624  36.828  73.175  0.00  0.00    +0.000 C 
ATOM     22  O   UNK A   1      16.912  37.781  73.477  0.00  0.00    +0.000 OA
ATOM     23  N   UNK A   1      18.937  36.838  73.317  0.00  0.00    +0.000 N 
ATOM     24  H   UNK A   1      19.412  37.680  73.700  0.00  0.00    +0.000 HD
ATOM     25  H   UNK A   1      19.496  36.004  73.046  0.00  0.00    +0.000 HD
ENDBRANCH  20  21
ENDBRANCH  17  20
ENDBRANCH  13  17
ENDBRANCH  11  14
ENDBRANCH   7  11
ENDBRANCH   6   9
BRANCH   6  26
ATOM     26  CB  ALA A   3      19.108  41.883  69.902  0.00  0.00    +0.000 C 
BRANCH  26  27
ATOM     27  CG  ALA A   3      19.762  41.402  71.175  0.00  0.00    +0.000 A 
ATOM     28  ND1 ALA A   3      19.341  40.299  71.900  0.00  0.00    +0.000 NA
ATOM     29  CE1 ALA A   3      20.117  40.160  72.968  0.00  0.00    +0.000 A 
ATOM     30  NE2 ALA A   3      21.037  41.102  72.934  0.00  0.00    +0.000 NA
ATOM     31  CD2 ALA A   3      20.832  41.897  71.837  0.00  0.00    +0.000 A 
ENDBRANCH  26  27
ENDBRANCH   6  26
ENDBRANCH   2   6
ENDBRANCH   1   3
BRANCH   1  32
ATOM     32  C   UNK A   4      14.763  45.111  68.113  0.00  0.00    +0.000 C 
ATOM     33  O   UNK A   4      14.233  45.964  67.383  0.00  0.00    +0.000 OA
ENDBRANCH   1  32
BRANCH   1  34
ATOM     34  C   UNK A   4      17.092  45.579  67.232  0.00  0.00    +0.000 C 
BRANCH  34  35
ATOM     35  C   UNK A   4      18.491  46.119  67.586  0.00  0.00    +0.000 C 
BRANCH  35  36
ATOM     36  C   UNK A   4      19.486  44.979  67.915  0.00  0.00    +0.000 C 
ATOM     37  O   UNK A   4      19.456  43.941  67.228  0.00  0.00    +0.000 OA
BRANCH  36  38
ATOM     38  O   UNK A   4      20.301  45.172  68.850  0.00  0.00    +0.000 OA
BRANCH  38  39
ATOM     39 CA   UNK A   1      21.531  46.065  70.560  0.00  0.00    +0.000 Ca
BRANCH  39  40
ATOM     40  O   UNK A   1      20.229  45.193  72.126  0.00  0.00    +0.000 OA
BRANCH  40  41
ATOM     41  C   UNK A   1      20.310  44.713  73.273  0.00  0.00    +0.000 C 
ATOM     42  O   UNK A   1      21.393  44.405  73.838  0.00  0.00    +0.000 OA
BRANCH  41  43
ATOM     43  C   UNK A   1      19.053  44.499  74.094  0.00  0.00    +0.000 C 
BRANCH  43  44
ATOM     44  C   UNK A   1      18.162  43.411  73.459  0.00  0.00    +0.000 C 
BRANCH  44  45
ATOM     45  C   UNK A   1      17.011  43.052  74.366  0.00  0.00    +0.000 C 
BRANCH  45  46
ATOM     46  C   UNK A   1      16.007  44.202  74.489  0.00  0.00    +0.000 C 
ATOM     47  O   UNK A   1      15.331  44.317  75.524  0.00  0.00    +0.000 OA
ATOM     48  N   SER A   2      15.904  45.024  73.447  0.00  0.00    +0.000 N 
ATOM     49  H   SER A   2      16.650  45.025  72.723  0.00  0.00    +0.000 HD
BRANCH  48  50
ATOM     50  CA  SER A   2      14.739  45.943  73.298  0.00  0.00    +0.000 C 
BRANCH  50  51
ATOM     51  C   SER A   2      14.732  46.967  74.416  0.00  0.00    +0.000 C 
ATOM     52  O   SER A   2      13.679  47.402  74.887  0.00  0.00    +0.000 OA
ATOM     53  N   ALA A   3      15.952  47.363  74.770  0.00  0.00    +0.000 N 
ATOM     54  H   ALA A   3      16.752  46.939  74.259  0.00  0.00    +0.000 HD
BRANCH  53  55
ATOM     55  CA  ALA A   3      16.270  48.334  75.806  0.00  0.00    +0.000 C 
ATOM     56  CB  ALA A   3      15.713  47.848  77.204  0.00  0.00    +0.000 C 
BRANCH  55  57
ATOM     57  C   ALA A   3      17.804  48.448  75.803  0.00  0.00    +0.000 C 
ATOM     58  O   ALA A   3      18.491  47.651  75.156  0.00  0.00    +0.000 OA
ENDBRANCH  55  57
ENDBRANCH  53  55
ENDBRANCH  50  51
BRANCH  50  59
ATOM     59  CB  SER A   2      13.406  45.161  73.280  0.00  0.00    +0.000 C 
BRANCH  59  60
ATOM     60  OG  SER A   2      13.430  44.202  72.212  0.00  0.00    +0.000 OA
ATOM     61  H   SER A   2      13.549  44.673  71.350  0.00  0.00    +0.000 HD
ENDBRANCH  59  60
ENDBRANCH  50  59
ENDBRANCH  48  50
ENDBRANCH  45  46
BRANCH  45  62
ATOM     62  N   UNK A   1      16.242  41.947  73.782  0.00  0.00    +0.000 NA
ATOM     63  H   UNK A   1      16.212  41.832  72.749  0.00  0.00    +0.000 HD
ENDBRANCH  45  62
ENDBRANCH  44  45
ENDBRANCH  43  44
ENDBRANCH  41  43
ENDBRANCH  40  41
ENDBRANCH  39  40
ENDBRANCH  38  39
ENDBRANCH  36  38
ENDBRANCH  35  36
ENDBRANCH  34  35
ENDBRANCH   1  34
TORSDOF 30
REMARK  Name = ../refined-set-2016/2jke/2jke_pocket.pdb
REMARK  172 active torsions:
REMARK  status: ('A' for Active; 'I' for Inactive)
REMARK    1  A    between atoms: _1  and  _3
REMARK    2  A    between atoms: _3  and  _4
REMARK    3  A    between atoms: _3  and  _6
REMARK    4  A    between atoms: _6  and  _7
REMARK    5  A    between atoms: _7  and  _8
REMARK    6  A    between atoms: _11  and  _13
REMARK    7  A    between atoms: _13  and  _14
REMARK    8  A    between atoms: _13  and  _16
REMARK    9  A    between atoms: _16  and  _17
REMARK   10  A    between atoms: _22  and  _24
REMARK   11  A    between atoms: _24  and  _25
REMARK   12  A    between atoms: _24  and  _27
REMARK   13  A    between atoms: _27  and  _28
REMARK   14  A    between atoms: _33  and  _34
REMARK   15  A    between atoms: _36  and  _38
REMARK   16  A    between atoms: _38  and  _39
REMARK   17  A    between atoms: _38  and  _41
REMARK   18  A    between atoms: _44  and  _46
REMARK   19  A    between atoms: _46  and  _47
REMARK   20  A    between atoms: _46  and  _49
REMARK   21  A    between atoms: _49  and  _50
REMARK   22  A    between atoms: _60  and  _62
REMARK   23  A    between atoms: _62  and  _63
REMARK   24  A    between atoms: _62  and  _65
REMARK   25  A    between atoms: _65  and  _66
REMARK   26  A    between atoms: _76  and  _78
REMARK   27  A    between atoms: _78  and  _79
REMARK   28  A    between atoms: _78  and  _81
REMARK   29  A    between atoms: _81  and  _82
REMARK   30  A    between atoms: _82  and  _83
REMARK   31  A    between atoms: _85  and  _87
REMARK   32  A    between atoms: _87  and  _88
REMARK   33  A    between atoms: _87  and  _90
REMARK   34  A    between atoms: _90  and  _91
REMARK   35  A    between atoms: _94  and  _96
REMARK   36  A    between atoms: _96  and  _97
REMARK   37  A    between atoms: _96  and  _99
REMARK   38  A    between atoms: _99  and  _100
REMARK   39  A    between atoms: _110  and  _112
REMARK   40  A    between atoms: _112  and  _113
REMARK   41  A    between atoms: _112  and  _115
REMARK   42  A    between atoms: _115  and  _116
REMARK   43  A    between atoms: _119  and  _121
REMARK   44  A    between atoms: _121  and  _122
REMARK   45  A    between atoms: _121  and  _124
REMARK   46  A    between atoms: _124  and  _125
REMARK   47  A    between atoms: _125  and  _126
REMARK   48  A    between atoms: _129  and  _131
REMARK   49  A    between atoms: _131  and  _132
REMARK   50  A    between atoms: _134  and  _136
REMARK   51  A    between atoms: _136  and  _137
REMARK   52  A    between atoms: _136  and  _139
REMARK   53  A    between atoms: _139  and  _140
REMARK   54  A    between atoms: _150  and  _152
REMARK   55  A    between atoms: _152  and  _153
REMARK   56  A    between atoms: _152  and  _155
REMARK   57  A    between atoms: _155  and  _156
REMARK   58  A    between atoms: _166  and  _168
REMARK   59  A    between atoms: _168  and  _169
REMARK   60  A    between atoms: _168  and  _171
REMARK   61  A    between atoms: _171  and  _172
REMARK   62  A    between atoms: _178  and  _180
REMARK   63  A    between atoms: _180  and  _181
REMARK   64  A    between atoms: _180  and  _183
REMARK   65  A    between atoms: _183  and  _184
REMARK   66  A    between atoms: _190  and  _192
REMARK   67  A    between atoms: _192  and  _193
REMARK   68  A    between atoms: _192  and  _195
REMARK   69  A    between atoms: _195  and  _196
REMARK   70  A    between atoms: _201  and  _203
REMARK   71  A    between atoms: _203  and  _204
REMARK   72  A    between atoms: _203  and  _206
REMARK   73  A    between atoms: _206  and  _207
REMARK   74  A    between atoms: _212  and  _214
REMARK   75  A    between atoms: _214  and  _215
REMARK   76  A    between atoms: _214  and  _217
REMARK   77  A    between atoms: _217  and  _218
REMARK   78  A    between atoms: _218  and  _219
REMARK   79  A    between atoms: _222  and  _224
REMARK   80  A    between atoms: _224  and  _225
REMARK   81  A    between atoms: _224  and  _227
REMARK   82  A    between atoms: _227  and  _228
REMARK   83  A    between atoms: _231  and  _233
REMARK   84  A    between atoms: _233  and  _234
REMARK   85  A    between atoms: _233  and  _236
REMARK   86  A    between atoms: _236  and  _237
REMARK   87  A    between atoms: _239  and  _241
REMARK   88  A    between atoms: _241  and  _242
REMARK   89  A    between atoms: _241  and  _244
REMARK   90  A    between atoms: _244  and  _245
REMARK   91  A    between atoms: _245  and  _246
REMARK   92  A    between atoms: _246  and  _247
REMARK   93  A    between atoms: _247  and  _248
REMARK   94  A    between atoms: _252  and  _254
REMARK   95  A    between atoms: _254  and  _255
REMARK   96  A    between atoms: _254  and  _257
REMARK   97  A    between atoms: _257  and  _258
REMARK   98  A    between atoms: _260  and  _262
REMARK   99  A    between atoms: _262  and  _263
REMARK  100  A    between atoms: _265  and  _267
REMARK  101  A    between atoms: _267  and  _268
REMARK  102  A    between atoms: _267  and  _270
REMARK  103  A    between atoms: _270  and  _271
REMARK  104  A    between atoms: _276  and  _277
REMARK  105  A    between atoms: _279  and  _281
REMARK  106  A    between atoms: _281  and  _282
REMARK  107  A    between atoms: _281  and  _284
REMARK  108  A    between atoms: _287  and  _289
REMARK  109  A    between atoms: _289  and  _290
REMARK  110  A    between atoms: _292  and  _294
REMARK  111  A    between atoms: _294  and  _295
REMARK  112  A    between atoms: _294  and  _297
REMARK  113  A    between atoms: _297  and  _298
REMARK  114  A    between atoms: _303  and  _305
REMARK  115  A    between atoms: _305  and  _306
REMARK  116  A    between atoms: _309  and  _311
REMARK  117  A    between atoms: _311  and  _312
REMARK  118  A    between atoms: _311  and  _314
REMARK  119  A    between atoms: _314  and  _315
REMARK  120  A    between atoms: _320  and  _322
REMARK  121  A    between atoms: _322  and  _323
REMARK  122  A    between atoms: _322  and  _325
REMARK  123  A    between atoms: _325  and  _326
REMARK  124  A    between atoms: _326  and  _327
REMARK  125  A    between atoms: _327  and  _329
REMARK  126  A    between atoms: _329  and  CA_431
REMARK  127  A    between atoms: _330  and  _332
REMARK  128  A    between atoms: _332  and  _333
REMARK  129  A    between atoms: _332  and  _335
REMARK  130  A    between atoms: _335  and  _336
REMARK  131  A    between atoms: _336  and  _337
REMARK  132  A    between atoms: _337  and  _338
REMARK  133  A    between atoms: _338  and  CA_431
REMARK  134  A    between atoms: _340  and  _342
REMARK  135  A    between atoms: _342  and  _343
REMARK  136  A    between atoms: _342  and  _345
REMARK  137  A    between atoms: _345  and  _346
REMARK  138  A    between atoms: _348  and  _350
REMARK  139  A    between atoms: _350  and  _351
REMARK  140  A    between atoms: _354  and  _356
REMARK  141  A    between atoms: _356  and  _357
REMARK  142  A    between atoms: _359  and  _361
REMARK  143  A    between atoms: _361  and  _362
REMARK  144  A    between atoms: _361  and  _364
REMARK  145  A    between atoms: _364  and  _365
REMARK  146  A    between atoms: _368  and  _370
REMARK  147  A    between atoms: _370  and  _371
REMARK  148  A    between atoms: _370  and  _373
REMARK  149  A    between atoms: _373  and  _374
REMARK  150  A    between atoms: _374  and  _375
REMARK  151  A    between atoms: _378  and  _380
REMARK  152  A    between atoms: _380  and  _381
REMARK  153  A    between atoms: _380  and  _383
REMARK  154  A    between atoms: _383  and  _384
REMARK  155  A    between atoms: _389  and  _390
REMARK  156  A    between atoms: _392  and  _394
REMARK  157  A    between atoms: _394  and  _395
REMARK  158  A    between atoms: _394  and  _397
REMARK  159  A    between atoms: _397  and  _398
REMARK  160  A    between atoms: _404  and  _406
REMARK  161  A    between atoms: _406  and  _407
REMARK  162  A    between atoms: _406  and  _409
REMARK  163  A    between atoms: _409  and  _410
REMARK  164  A    between atoms: _413  and  _415
REMARK  165  A    between atoms: _415  and  _416
REMARK  166  A    between atoms: _415  and  _418
REMARK  167  A    between atoms: _418  and  _419
REMARK  168  A    between atoms: _422  and  _424
REMARK  169  A    between atoms: _424  and  _425
REMARK  170  A    between atoms: _424  and  _427
REMARK  171  A    between atoms: _427  and  _428
REMARK  172  A    between atoms: _428  and  _429
REMARK                            x       y       z     vdW  Elec       q    Type
REMARK                         _______ _______ _______ _____ _____    ______ ____
ROOT
ATOM      1  CA  GLU A   3      26.759  46.239  75.443  0.00  0.00    +0.149 C 
ENDROOT
BRANCH   1   2
ATOM      2  C   GLU A   3      27.124  47.723  75.534  0.00  0.00    +0.241 C 
ATOM      3  N   TYR A   4      26.193  48.579  75.986  0.00  0.00    -0.298 N 
ATOM      4  H   TYR A   4      25.270  48.224  76.308  0.00  0.00    +0.150 HD
ATOM      5  O   GLU A   3      28.234  48.083  75.194  0.00  0.00    -0.273 OA
BRANCH   3   6
ATOM      6  CA  TYR A   4      26.483  50.012  76.024  0.00  0.00    +0.141 C 
BRANCH   6   7
ATOM      7  C   TYR A   4      27.493  50.377  77.110  0.00  0.00    +0.227 C 
ATOM      8  O   TYR A   4      28.078  51.481  77.074  0.00  0.00    -0.286 OA
ENDBRANCH   6   7
BRANCH   6   9
ATOM      9  CB  TYR A   4      25.179  50.825  76.142  0.00  0.00    +0.054 C 
BRANCH   9  10
ATOM     10  CG  TYR A   4      24.582  51.023  74.760  0.00  0.00    -0.020 A 
ATOM     11  CD2 TYR A   4      23.712  50.067  74.210  0.00  0.00    -0.001 A 
ATOM     12  CE2 TYR A   4      23.177  50.209  72.932  0.00  0.00    +0.036 A 
ATOM     13  CZ  TYR A   4      23.495  51.329  72.175  0.00  0.00    +0.134 A 
ATOM     14  CE1 TYR A   4      24.403  52.279  72.683  0.00  0.00    +0.036 A 
ATOM     15  CD1 TYR A   4      24.937  52.117  73.977  0.00  0.00    -0.001 A 
BRANCH  13  16
ATOM     16  OH  TYR A   4      22.944  51.461  70.918  0.00  0.00    -0.506 OA
ATOM     17  HH  TYR A   4      22.335  50.700  70.744  0.00  0.00    +0.292 HD
ENDBRANCH  13  16
ENDBRANCH   9  10
ENDBRANCH   6   9
ENDBRANCH   3   6
ENDBRANCH   1   2
BRANCH   1  20
ATOM     18  C   THR A   2      26.218  46.107  77.773  0.00  0.00    +0.243 C 
ATOM     19  O   THR A   2      27.286  46.704  78.018  0.00  0.00    -0.273 OA
ATOM     20  N   GLU A   3      25.858  45.818  76.526  0.00  0.00    -0.297 N 
ATOM     21  H   GLU A   3      24.972  45.313  76.324  0.00  0.00    +0.150 HD
BRANCH  18  22
ATOM     22  CA  THR A   2      25.273  45.715  78.914  0.00  0.00    +0.176 C 
BRANCH  22  24
ATOM     23  C   GLY A   1      23.276  46.728  77.985  0.00  0.00    +0.240 C 
ATOM     24  N   THR A   2      23.879  45.653  78.485  0.00  0.00    -0.295 N 
ATOM     25  H   THR A   2      23.353  44.760  78.571  0.00  0.00    +0.150 HD
ATOM     26  O   GLY A   1      23.859  47.818  77.795  0.00  0.00    -0.274 OA
BRANCH  23  27
ATOM     27  CA  GLY A   1      21.814  46.540  77.638  0.00  0.00    +0.169 C 
BRANCH  27  28
ATOM     28  N   GLY A   1      21.249  47.644  76.869  0.00  0.00    -0.236 NA
ATOM     29  H   GLY A   1      21.512  47.763  75.870  0.00  0.00    +0.142 HD
ENDBRANCH  27  28
ENDBRANCH  23  27
ENDBRANCH  22  24
BRANCH  22  30
ATOM     30  CB  THR A   2      25.680  44.372  79.581  0.00  0.00    +0.137 C 
ATOM     31  CG2 THR A   2      27.174  44.333  79.883  0.00  0.00    +0.034 C 
BRANCH  30  32
ATOM     32  OG1 THR A   2      24.996  44.281  80.829  0.00  0.00    -0.382 OA
ATOM     33  HG1 THR A   2      25.257  45.044  81.404  0.00  0.00    +0.210 HD
ENDBRANCH  30  32
ENDBRANCH  22  30
ENDBRANCH  18  22
ENDBRANCH   1  20
BRANCH   1  34
ATOM     34  CB  GLU A   3      26.190  45.878  74.050  0.00  0.00    +0.041 C 
BRANCH  34  35
ATOM     35  CG  GLU A   3      24.829  46.529  73.784  0.00  0.00    +0.116 C 
BRANCH  35  36
ATOM     36  CD  GLU A   3      24.380  46.411  72.332  0.00  0.00    +0.365 C 
ATOM     37  OE2 GLU A   3      23.176  46.658  72.096  0.00  0.00    -0.246 OA
ATOM     38  OE1 GLU A   3      25.221  46.132  71.432  0.00  0.00    -0.246 OA
ENDBRANCH  35  36
ENDBRANCH  34  35
ENDBRANCH   1  34
TORSDOF 16
REMARK  Name = ../refined-set-2016/2jke/2jke_pocket.pdb
REMARK  172 active torsions:
REMARK  status: ('A' for Active; 'I' for Inactive)
REMARK    1  A    between atoms: _1  and  _3
REMARK    2  A    between atoms: _3  and  _4
REMARK    3  A    between atoms: _3  and  _6
REMARK    4  A    between atoms: _6  and  _7
REMARK    5  A    between atoms: _7  and  _8
REMARK    6  A    between atoms: _11  and  _13
REMARK    7  A    between atoms: _13  and  _14
REMARK    8  A    between atoms: _13  and  _16
REMARK    9  A    between atoms: _16  and  _17
REMARK   10  A    between atoms: _22  and  _24
REMARK   11  A    between atoms: _24  and  _25
REMARK   12  A    between atoms: _24  and  _27
REMARK   13  A    between atoms: _27  and  _28
REMARK   14  A    between atoms: _33  and  _34
REMARK   15  A    between atoms: _36  and  _38
REMARK   16  A    between atoms: _38  and  _39
REMARK   17  A    between atoms: _38  and  _41
REMARK   18  A    between atoms: _44  and  _46
REMARK   19  A    between atoms: _46  and  _47
REMARK   20  A    between atoms: _46  and  _49
REMARK   21  A    between atoms: _49  and  _50
REMARK   22  A    between atoms: _60  and  _62
REMARK   23  A    between atoms: _62  and  _63
REMARK   24  A    between atoms: _62  and  _65
REMARK   25  A    between atoms: _65  and  _66
REMARK   26  A    between atoms: _76  and  _78
REMARK   27  A    between atoms: _78  and  _79
REMARK   28  A    between atoms: _78  and  _81
REMARK   29  A    between atoms: _81  and  _82
REMARK   30  A    between atoms: _82  and  _83
REMARK   31  A    between atoms: _85  and  _87
REMARK   32  A    between atoms: _87  and  _88
REMARK   33  A    between atoms: _87  and  _90
REMARK   34  A    between atoms: _90  and  _91
REMARK   35  A    between atoms: _94  and  _96
REMARK   36  A    between atoms: _96  and  _97
REMARK   37  A    between atoms: _96  and  _99
REMARK   38  A    between atoms: _99  and  _100
REMARK   39  A    between atoms: _110  and  _112
REMARK   40  A    between atoms: _112  and  _113
REMARK   41  A    between atoms: _112  and  _115
REMARK   42  A    between atoms: _115  and  _116
REMARK   43  A    between atoms: _119  and  _121
REMARK   44  A    between atoms: _121  and  _122
REMARK   45  A    between atoms: _121  and  _124
REMARK   46  A    between atoms: _124  and  _125
REMARK   47  A    between atoms: _125  and  _126
REMARK   48  A    between atoms: _129  and  _131
REMARK   49  A    between atoms: _131  and  _132
REMARK   50  A    between atoms: _134  and  _136
REMARK   51  A    between atoms: _136  and  _137
REMARK   52  A    between atoms: _136  and  _139
REMARK   53  A    between atoms: _139  and  _140
REMARK   54  A    between atoms: _150  and  _152
REMARK   55  A    between atoms: _152  and  _153
REMARK   56  A    between atoms: _152  and  _155
REMARK   57  A    between atoms: _155  and  _156
REMARK   58  A    between atoms: _166  and  _168
REMARK   59  A    between atoms: _168  and  _169
REMARK   60  A    between atoms: _168  and  _171
REMARK   61  A    between atoms: _171  and  _172
REMARK   62  A    between atoms: _178  and  _180
REMARK   63  A    between atoms: _180  and  _181
REMARK   64  A    between atoms: _180  and  _183
REMARK   65  A    between atoms: _183  and  _184
REMARK   66  A    between atoms: _190  and  _192
REMARK   67  A    between atoms: _192  and  _193
REMARK   68  A    between atoms: _192  and  _195
REMARK   69  A    between atoms: _195  and  _196
REMARK   70  A    between atoms: _201  and  _203
REMARK   71  A    between atoms: _203  and  _204
REMARK   72  A    between atoms: _203  and  _206
REMARK   73  A    between atoms: _206  and  _207
REMARK   74  A    between atoms: _212  and  _214
REMARK   75  A    between atoms: _214  and  _215
REMARK   76  A    between atoms: _214  and  _217
REMARK   77  A    between atoms: _217  and  _218
REMARK   78  A    between atoms: _218  and  _219
REMARK   79  A    between atoms: _222  and  _224
REMARK   80  A    between atoms: _224  and  _225
REMARK   81  A    between atoms: _224  and  _227
REMARK   82  A    between atoms: _227  and  _228
REMARK   83  A    between atoms: _231  and  _233
REMARK   84  A    between atoms: _233  and  _234
REMARK   85  A    between atoms: _233  and  _236
REMARK   86  A    between atoms: _236  and  _237
REMARK   87  A    between atoms: _239  and  _241
REMARK   88  A    between atoms: _241  and  _242
REMARK   89  A    between atoms: _241  and  _244
REMARK   90  A    between atoms: _244  and  _245
REMARK   91  A    between atoms: _245  and  _246
REMARK   92  A    between atoms: _246  and  _247
REMARK   93  A    between atoms: _247  and  _248
REMARK   94  A    between atoms: _252  and  _254
REMARK   95  A    between atoms: _254  and  _255
REMARK   96  A    between atoms: _254  and  _257
REMARK   97  A    between atoms: _257  and  _258
REMARK   98  A    between atoms: _260  and  _262
REMARK   99  A    between atoms: _262  and  _263
REMARK  100  A    between atoms: _265  and  _267
REMARK  101  A    between atoms: _267  and  _268
REMARK  102  A    between atoms: _267  and  _270
REMARK  103  A    between atoms: _270  and  _271
REMARK  104  A    between atoms: _276  and  _277
REMARK  105  A    between atoms: _279  and  _281
REMARK  106  A    between atoms: _281  and  _282
REMARK  107  A    between atoms: _281  and  _284
REMARK  108  A    between atoms: _287  and  _289
REMARK  109  A    between atoms: _289  and  _290
REMARK  110  A    between atoms: _292  and  _294
REMARK  111  A    between atoms: _294  and  _295
REMARK  112  A    between atoms: _294  and  _297
REMARK  113  A    between atoms: _297  and  _298
REMARK  114  A    between atoms: _303  and  _305
REMARK  115  A    between atoms: _305  and  _306
REMARK  116  A    between atoms: _309  and  _311
REMARK  117  A    between atoms: _311  and  _312
REMARK  118  A    between atoms: _311  and  _314
REMARK  119  A    between atoms: _314  and  _315
REMARK  120  A    between atoms: _320  and  _322
REMARK  121  A    between atoms: _322  and  _323
REMARK  122  A    between atoms: _322  and  _325
REMARK  123  A    between atoms: _325  and  _326
REMARK  124  A    between atoms: _326  and  _327
REMARK  125  A    between atoms: _327  and  _329
REMARK  126  A    between atoms: _329  and  CA_431
REMARK  127  A    between atoms: _330  and  _332
REMARK  128  A    between atoms: _332  and  _333
REMARK  129  A    between atoms: _332  and  _335
REMARK  130  A    between atoms: _335  and  _336
REMARK  131  A    between atoms: _336  and  _337
REMARK  132  A    between atoms: _337  and  _338
REMARK  133  A    between atoms: _338  and  CA_431
REMARK  134  A    between atoms: _340  and  _342
REMARK  135  A    between atoms: _342  and  _343
REMARK  136  A    between atoms: _342  and  _345
REMARK  137  A    between atoms: _345  and  _346
REMARK  138  A    between atoms: _348  and  _350
REMARK  139  A    between atoms: _350  and  _351
REMARK  140  A    between atoms: _354  and  _356
REMARK  141  A    between atoms: _356  and  _357
REMARK  142  A    between atoms: _359  and  _361
REMARK  143  A    between atoms: _361  and  _362
REMARK  144  A    between atoms: _361  and  _364
REMARK  145  A    between atoms: _364  and  _365
REMARK  146  A    between atoms: _368  and  _370
REMARK  147  A    between atoms: _370  and  _371
REMARK  148  A    between atoms: _370  and  _373
REMARK  149  A    between atoms: _373  and  _374
REMARK  150  A    between atoms: _374  and  _375
REMARK  151  A    between atoms: _378  and  _380
REMARK  152  A    between atoms: _380  and  _381
REMARK  153  A    between atoms: _380  and  _383
REMARK  154  A    between atoms: _383  and  _384
REMARK  155  A    between atoms: _389  and  _390
REMARK  156  A    between atoms: _392  and  _394
REMARK  157  A    between atoms: _394  and  _395
REMARK  158  A    between atoms: _394  and  _397
REMARK  159  A    between atoms: _397  and  _398
REMARK  160  A    between atoms: _404  and  _406
REMARK  161  A    between atoms: _406  and  _407
REMARK  162  A    between atoms: _406  and  _409
REMARK  163  A    between atoms: _409  and  _410
REMARK  164  A    between atoms: _413  and  _415
REMARK  165  A    between atoms: _415  and  _416
REMARK  166  A    between atoms: _415  and  _418
REMARK  167  A    between atoms: _418  and  _419
REMARK  168  A    between atoms: _422  and  _424
REMARK  169  A    between atoms: _424  and  _425
REMARK  170  A    between atoms: _424  and  _427
REMARK  171  A    between atoms: _427  and  _428
REMARK  172  A    between atoms: _428  and  _429
REMARK                            x       y       z     vdW  Elec       q    Type
REMARK                         _______ _______ _______ _____ _____    ______ ____
ROOT
ATOM      1  CB  PHE A   1      28.975  52.032  73.473  0.00  0.00    +0.051 C 
ENDROOT
BRANCH   1   2
ATOM      2  CG  PHE A   1      28.891  50.688  72.744  0.00  0.00    -0.020 A 
ATOM      3  CD2 PHE A   1      27.640  50.115  72.470  0.00  0.00    -0.004 A 
ATOM      4  CE2 PHE A   1      27.531  48.874  71.789  0.00  0.00    -0.000 A 
ATOM      5  CZ  PHE A   1      28.697  48.208  71.388  0.00  0.00    -0.000 A 
ATOM      6  CE1 PHE A   1      29.954  48.790  71.645  0.00  0.00    -0.000 A 
ATOM      7  CD1 PHE A   1      30.038  50.019  72.318  0.00  0.00    -0.004 A 
ENDBRANCH   1   2
BRANCH   1   8
ATOM      8  CA  PHE A   1      30.206  52.200  74.393  0.00  0.00    +0.137 C 
BRANCH   8   9
ATOM      9  N   PHE A   1      30.345  51.069  75.329  0.00  0.00    -0.239 NA
ATOM     10  H   PHE A   1      29.537  50.808  75.930  0.00  0.00    +0.142 HD
ENDBRANCH   8   9
BRANCH   8  11
ATOM     11  C   PHE A   1      30.067  53.521  75.131  0.00  0.00    +0.224 C 
ATOM     12  O   PHE A   1      29.419  54.463  74.624  0.00  0.00    -0.287 OA
ENDBRANCH   8  11
ENDBRANCH   1   8
TORSDOF 4
REMARK  Name = ../refined-set-2016/2jke/2jke_pocket.pdb
REMARK  172 active torsions:
REMARK  status: ('A' for Active; 'I' for Inactive)
REMARK    1  A    between atoms: _1  and  _3
REMARK    2  A    between atoms: _3  and  _4
REMARK    3  A    between atoms: _3  and  _6
REMARK    4  A    between atoms: _6  and  _7
REMARK    5  A    between atoms: _7  and  _8
REMARK    6  A    between atoms: _11  and  _13
REMARK    7  A    between atoms: _13  and  _14
REMARK    8  A    between atoms: _13  and  _16
REMARK    9  A    between atoms: _16  and  _17
REMARK   10  A    between atoms: _22  and  _24
REMARK   11  A    between atoms: _24  and  _25
REMARK   12  A    between atoms: _24  and  _27
REMARK   13  A    between atoms: _27  and  _28
REMARK   14  A    between atoms: _33  and  _34
REMARK   15  A    between atoms: _36  and  _38
REMARK   16  A    between atoms: _38  and  _39
REMARK   17  A    between atoms: _38  and  _41
REMARK   18  A    between atoms: _44  and  _46
REMARK   19  A    between atoms: _46  and  _47
REMARK   20  A    between atoms: _46  and  _49
REMARK   21  A    between atoms: _49  and  _50
REMARK   22  A    between atoms: _60  and  _62
REMARK   23  A    between atoms: _62  and  _63
REMARK   24  A    between atoms: _62  and  _65
REMARK   25  A    between atoms: _65  and  _66
REMARK   26  A    between atoms: _76  and  _78
REMARK   27  A    between atoms: _78  and  _79
REMARK   28  A    between atoms: _78  and  _81
REMARK   29  A    between atoms: _81  and  _82
REMARK   30  A    between atoms: _82  and  _83
REMARK   31  A    between atoms: _85  and  _87
REMARK   32  A    between atoms: _87  and  _88
REMARK   33  A    between atoms: _87  and  _90
REMARK   34  A    between atoms: _90  and  _91
REMARK   35  A    between atoms: _94  and  _96
REMARK   36  A    between atoms: _96  and  _97
REMARK   37  A    between atoms: _96  and  _99
REMARK   38  A    between atoms: _99  and  _100
REMARK   39  A    between atoms: _110  and  _112
REMARK   40  A    between atoms: _112  and  _113
REMARK   41  A    between atoms: _112  and  _115
REMARK   42  A    between atoms: _115  and  _116
REMARK   43  A    between atoms: _119  and  _121
REMARK   44  A    between atoms: _121  and  _122
REMARK   45  A    between atoms: _121  and  _124
REMARK   46  A    between atoms: _124  and  _125
REMARK   47  A    between atoms: _125  and  _126
REMARK   48  A    between atoms: _129  and  _131
REMARK   49  A    between atoms: _131  and  _132
REMARK   50  A    between atoms: _134  and  _136
REMARK   51  A    between atoms: _136  and  _137
REMARK   52  A    between atoms: _136  and  _139
REMARK   53  A    between atoms: _139  and  _140
REMARK   54  A    between atoms: _150  and  _152
REMARK   55  A    between atoms: _152  and  _153
REMARK   56  A    between atoms: _152  and  _155
REMARK   57  A    between atoms: _155  and  _156
REMARK   58  A    between atoms: _166  and  _168
REMARK   59  A    between atoms: _168  and  _169
REMARK   60  A    between atoms: _168  and  _171
REMARK   61  A    between atoms: _171  and  _172
REMARK   62  A    between atoms: _178  and  _180
REMARK   63  A    between atoms: _180  and  _181
REMARK   64  A    between atoms: _180  and  _183
REMARK   65  A    between atoms: _183  and  _184
REMARK   66  A    between atoms: _190  and  _192
REMARK   67  A    between atoms: _192  and  _193
REMARK   68  A    between atoms: _192  and  _195
REMARK   69  A    between atoms: _195  and  _196
REMARK   70  A    between atoms: _201  and  _203
REMARK   71  A    between atoms: _203  and  _204
REMARK   72  A    between atoms: _203  and  _206
REMARK   73  A    between atoms: _206  and  _207
REMARK   74  A    between atoms: _212  and  _214
REMARK   75  A    between atoms: _214  and  _215
REMARK   76  A    between atoms: _214  and  _217
REMARK   77  A    between atoms: _217  and  _218
REMARK   78  A    between atoms: _218  and  _219
REMARK   79  A    between atoms: _222  and  _224
REMARK   80  A    between atoms: _224  and  _225
REMARK   81  A    between atoms: _224  and  _227
REMARK   82  A    between atoms: _227  and  _228
REMARK   83  A    between atoms: _231  and  _233
REMARK   84  A    between atoms: _233  and  _234
REMARK   85  A    between atoms: _233  and  _236
REMARK   86  A    between atoms: _236  and  _237
REMARK   87  A    between atoms: _239  and  _241
REMARK   88  A    between atoms: _241  and  _242
REMARK   89  A    between atoms: _241  and  _244
REMARK   90  A    between atoms: _244  and  _245
REMARK   91  A    between atoms: _245  and  _246
REMARK   92  A    between atoms: _246  and  _247
REMARK   93  A    between atoms: _247  and  _248
REMARK   94  A    between atoms: _252  and  _254
REMARK   95  A    between atoms: _254  and  _255
REMARK   96  A    between atoms: _254  and  _257
REMARK   97  A    between atoms: _257  and  _258
REMARK   98  A    between atoms: _260  and  _262
REMARK   99  A    between atoms: _262  and  _263
REMARK  100  A    between atoms: _265  and  _267
REMARK  101  A    between atoms: _267  and  _268
REMARK  102  A    between atoms: _267  and  _270
REMARK  103  A    between atoms: _270  and  _271
REMARK  104  A    between atoms: _276  and  _277
REMARK  105  A    between atoms: _279  and  _281
REMARK  106  A    between atoms: _281  and  _282
REMARK  107  A    between atoms: _281  and  _284
REMARK  108  A    between atoms: _287  and  _289
REMARK  109  A    between atoms: _289  and  _290
REMARK  110  A    between atoms: _292  and  _294
REMARK  111  A    between atoms: _294  and  _295
REMARK  112  A    between atoms: _294  and  _297
REMARK  113  A    between atoms: _297  and  _298
REMARK  114  A    between atoms: _303  and  _305
REMARK  115  A    between atoms: _305  and  _306
REMARK  116  A    between atoms: _309  and  _311
REMARK  117  A    between atoms: _311  and  _312
REMARK  118  A    between atoms: _311  and  _314
REMARK  119  A    between atoms: _314  and  _315
REMARK  120  A    between atoms: _320  and  _322
REMARK  121  A    between atoms: _322  and  _323
REMARK  122  A    between atoms: _322  and  _325
REMARK  123  A    between atoms: _325  and  _326
REMARK  124  A    between atoms: _326  and  _327
REMARK  125  A    between atoms: _327  and  _329
REMARK  126  A    between atoms: _329  and  CA_431
REMARK  127  A    between atoms: _330  and  _332
REMARK  128  A    between atoms: _332  and  _333
REMARK  129  A    between atoms: _332  and  _335
REMARK  130  A    between atoms: _335  and  _336
REMARK  131  A    between atoms: _336  and  _337
REMARK  132  A    between atoms: _337  and  _338
REMARK  133  A    between atoms: _338  and  CA_431
REMARK  134  A    between atoms: _340  and  _342
REMARK  135  A    between atoms: _342  and  _343
REMARK  136  A    between atoms: _342  and  _345
REMARK  137  A    between atoms: _345  and  _346
REMARK  138  A    between atoms: _348  and  _350
REMARK  139  A    between atoms: _350  and  _351
REMARK  140  A    between atoms: _354  and  _356
REMARK  141  A    between atoms: _356  and  _357
REMARK  142  A    between atoms: _359  and  _361
REMARK  143  A    between atoms: _361  and  _362
REMARK  144  A    between atoms: _361  and  _364
REMARK  145  A    between atoms: _364  and  _365
REMARK  146  A    between atoms: _368  and  _370
REMARK  147  A    between atoms: _370  and  _371
REMARK  148  A    between atoms: _370  and  _373
REMARK  149  A    between atoms: _373  and  _374
REMARK  150  A    between atoms: _374  and  _375
REMARK  151  A    between atoms: _378  and  _380
REMARK  152  A    between atoms: _380  and  _381
REMARK  153  A    between atoms: _380  and  _383
REMARK  154  A    between atoms: _383  and  _384
REMARK  155  A    between atoms: _389  and  _390
REMARK  156  A    between atoms: _392  and  _394
REMARK  157  A    between atoms: _394  and  _395
REMARK  158  A    between atoms: _394  and  _397
REMARK  159  A    between atoms: _397  and  _398
REMARK  160  A    between atoms: _404  and  _406
REMARK  161  A    between atoms: _406  and  _407
REMARK  162  A    between atoms: _406  and  _409
REMARK  163  A    between atoms: _409  and  _410
REMARK  164  A    between atoms: _413  and  _415
REMARK  165  A    between atoms: _415  and  _416
REMARK  166  A    between atoms: _415  and  _418
REMARK  167  A    between atoms: _418  and  _419
REMARK  168  A    between atoms: _422  and  _424
REMARK  169  A    between atoms: _424  and  _425
REMARK  170  A    between atoms: _424  and  _427
REMARK  171  A    between atoms: _427  and  _428
REMARK  172  A    between atoms: _428  and  _429
REMARK                            x       y       z     vdW  Elec       q    Type
REMARK                         _______ _______ _______ _____ _____    ______ ____
ROOT
ATOM      1  CA  ASP A   1      18.760  39.397  77.787  0.00  0.00    +0.144 C 
ENDROOT
BRANCH   1   2
ATOM      2  N   ASP A   1      17.409  39.949  77.908  0.00  0.00    -0.239 NA
ATOM      3  H   ASP A   1      16.917  40.229  77.035  0.00  0.00    +0.142 HD
ENDBRANCH   1   2
BRANCH   1   4
ATOM      4  C   ASP A   1      19.702  40.586  78.016  0.00  0.00    +0.225 C 
ATOM      5  O   ASP A   1      20.165  41.217  77.052  0.00  0.00    -0.287 OA
ENDBRANCH   1   4
BRANCH   1   6
ATOM      6  CB  ASP A   1      18.903  38.802  76.371  0.00  0.00    +0.139 C 
BRANCH   6   7
ATOM      7  CG  ASP A   1      20.250  38.170  76.126  0.00  0.00    +0.367 C 
ATOM      8  OD2 ASP A   1      20.767  37.492  77.038  0.00  0.00    -0.246 OA
ATOM      9  OD1 ASP A   1      20.760  38.339  75.006  0.00  0.00    -0.246 OA
ENDBRANCH   6   7
ENDBRANCH   1   6
TORSDOF 4
REMARK  Name = ../refined-set-2016/2jke/2jke_pocket.pdb
REMARK  172 active torsions:
REMARK  status: ('A' for Active; 'I' for Inactive)
REMARK    1  A    between atoms: _1  and  _3
REMARK    2  A    between atoms: _3  and  _4
REMARK    3  A    between atoms: _3  and  _6
REMARK    4  A    between atoms: _6  and  _7
REMARK    5  A    between atoms: _7  and  _8
REMARK    6  A    between atoms: _11  and  _13
REMARK    7  A    between atoms: _13  and  _14
REMARK    8  A    between atoms: _13  and  _16
REMARK    9  A    between atoms: _16  and  _17
REMARK   10  A    between atoms: _22  and  _24
REMARK   11  A    between atoms: _24  and  _25
REMARK   12  A    between atoms: _24  and  _27
REMARK   13  A    between atoms: _27  and  _28
REMARK   14  A    between atoms: _33  and  _34
REMARK   15  A    between atoms: _36  and  _38
REMARK   16  A    between atoms: _38  and  _39
REMARK   17  A    between atoms: _38  and  _41
REMARK   18  A    between atoms: _44  and  _46
REMARK   19  A    between atoms: _46  and  _47
REMARK   20  A    between atoms: _46  and  _49
REMARK   21  A    between atoms: _49  and  _50
REMARK   22  A    between atoms: _60  and  _62
REMARK   23  A    between atoms: _62  and  _63
REMARK   24  A    between atoms: _62  and  _65
REMARK   25  A    between atoms: _65  and  _66
REMARK   26  A    between atoms: _76  and  _78
REMARK   27  A    between atoms: _78  and  _79
REMARK   28  A    between atoms: _78  and  _81
REMARK   29  A    between atoms: _81  and  _82
REMARK   30  A    between atoms: _82  and  _83
REMARK   31  A    between atoms: _85  and  _87
REMARK   32  A    between atoms: _87  and  _88
REMARK   33  A    between atoms: _87  and  _90
REMARK   34  A    between atoms: _90  and  _91
REMARK   35  A    between atoms: _94  and  _96
REMARK   36  A    between atoms: _96  and  _97
REMARK   37  A    between atoms: _96  and  _99
REMARK   38  A    between atoms: _99  and  _100
REMARK   39  A    between atoms: _110  and  _112
REMARK   40  A    between atoms: _112  and  _113
REMARK   41  A    between atoms: _112  and  _115
REMARK   42  A    between atoms: _115  and  _116
REMARK   43  A    between atoms: _119  and  _121
REMARK   44  A    between atoms: _121  and  _122
REMARK   45  A    between atoms: _121  and  _124
REMARK   46  A    between atoms: _124  and  _125
REMARK   47  A    between atoms: _125  and  _126
REMARK   48  A    between atoms: _129  and  _131
REMARK   49  A    between atoms: _131  and  _132
REMARK   50  A    between atoms: _134  and  _136
REMARK   51  A    between atoms: _136  and  _137
REMARK   52  A    between atoms: _136  and  _139
REMARK   53  A    between atoms: _139  and  _140
REMARK   54  A    between atoms: _150  and  _152
REMARK   55  A    between atoms: _152  and  _153
REMARK   56  A    between atoms: _152  and  _155
REMARK   57  A    between atoms: _155  and  _156
REMARK   58  A    between atoms: _166  and  _168
REMARK   59  A    between atoms: _168  and  _169
REMARK   60  A    between atoms: _168  and  _171
REMARK   61  A    between atoms: _171  and  _172
REMARK   62  A    between atoms: _178  and  _180
REMARK   63  A    between atoms: _180  and  _181
REMARK   64  A    between atoms: _180  and  _183
REMARK   65  A    between atoms: _183  and  _184
REMARK   66  A    between atoms: _190  and  _192
REMARK   67  A    between atoms: _192  and  _193
REMARK   68  A    between atoms: _192  and  _195
REMARK   69  A    between atoms: _195  and  _196
REMARK   70  A    between atoms: _201  and  _203
REMARK   71  A    between atoms: _203  and  _204
REMARK   72  A    between atoms: _203  and  _206
REMARK   73  A    between atoms: _206  and  _207
REMARK   74  A    between atoms: _212  and  _214
REMARK   75  A    between atoms: _214  and  _215
REMARK   76  A    between atoms: _214  and  _217
REMARK   77  A    between atoms: _217  and  _218
REMARK   78  A    between atoms: _218  and  _219
REMARK   79  A    between atoms: _222  and  _224
REMARK   80  A    between atoms: _224  and  _225
REMARK   81  A    between atoms: _224  and  _227
REMARK   82  A    between atoms: _227  and  _228
REMARK   83  A    between atoms: _231  and  _233
REMARK   84  A    between atoms: _233  and  _234
REMARK   85  A    between atoms: _233  and  _236
REMARK   86  A    between atoms: _236  and  _237
REMARK   87  A    between atoms: _239  and  _241
REMARK   88  A    between atoms: _241  and  _242
REMARK   89  A    between atoms: _241  and  _244
REMARK   90  A    between atoms: _244  and  _245
REMARK   91  A    between atoms: _245  and  _246
REMARK   92  A    between atoms: _246  and  _247
REMARK   93  A    between atoms: _247  and  _248
REMARK   94  A    between atoms: _252  and  _254
REMARK   95  A    between atoms: _254  and  _255
REMARK   96  A    between atoms: _254  and  _257
REMARK   97  A    between atoms: _257  and  _258
REMARK   98  A    between atoms: _260  and  _262
REMARK   99  A    between atoms: _262  and  _263
REMARK  100  A    between atoms: _265  and  _267
REMARK  101  A    between atoms: _267  and  _268
REMARK  102  A    between atoms: _267  and  _270
REMARK  103  A    between atoms: _270  and  _271
REMARK  104  A    between atoms: _276  and  _277
REMARK  105  A    between atoms: _279  and  _281
REMARK  106  A    between atoms: _281  and  _282
REMARK  107  A    between atoms: _281  and  _284
REMARK  108  A    between atoms: _287  and  _289
REMARK  109  A    between atoms: _289  and  _290
REMARK  110  A    between atoms: _292  and  _294
REMARK  111  A    between atoms: _294  and  _295
REMARK  112  A    between atoms: _294  and  _297
REMARK  113  A    between atoms: _297  and  _298
REMARK  114  A    between atoms: _303  and  _305
REMARK  115  A    between atoms: _305  and  _306
REMARK  116  A    between atoms: _309  and  _311
REMARK  117  A    between atoms: _311  and  _312
REMARK  118  A    between atoms: _311  and  _314
REMARK  119  A    between atoms: _314  and  _315
REMARK  120  A    between atoms: _320  and  _322
REMARK  121  A    between atoms: _322  and  _323
REMARK  122  A    between atoms: _322  and  _325
REMARK  123  A    between atoms: _325  and  _326
REMARK  124  A    between atoms: _326  and  _327
REMARK  125  A    between atoms: _327  and  _329
REMARK  126  A    between atoms: _329  and  CA_431
REMARK  127  A    between atoms: _330  and  _332
REMARK  128  A    between atoms: _332  and  _333
REMARK  129  A    between atoms: _332  and  _335
REMARK  130  A    between atoms: _335  and  _336
REMARK  131  A    between atoms: _336  and  _337
REMARK  132  A    between atoms: _337  and  _338
REMARK  133  A    between atoms: _338  and  CA_431
REMARK  134  A    between atoms: _340  and  _342
REMARK  135  A    between atoms: _342  and  _343
REMARK  136  A    between atoms: _342  and  _345
REMARK  137  A    between atoms: _345  and  _346
REMARK  138  A    between atoms: _348  and  _350
REMARK  139  A    between atoms: _350  and  _351
REMARK  140  A    between atoms: _354  and  _356
REMARK  141  A    between atoms: _356  and  _357
REMARK  142  A    between atoms: _359  and  _361
REMARK  143  A    between atoms: _361  and  _362
REMARK  144  A    between atoms: _361  and  _364
REMARK  145  A    between atoms: _364  and  _365
REMARK  146  A    between atoms: _368  and  _370
REMARK  147  A    between atoms: _370  and  _371
REMARK  148  A    between atoms: _370  and  _373
REMARK  149  A    between atoms: _373  and  _374
REMARK  150  A    between atoms: _374  and  _375
REMARK  151  A    between atoms: _378  and  _380
REMARK  152  A    between atoms: _380  and  _381
REMARK  153  A    between atoms: _380  and  _383
REMARK  154  A    between atoms: _383  and  _384
REMARK  155  A    between atoms: _389  and  _390
REMARK  156  A    between atoms: _392  and  _394
REMARK  157  A    between atoms: _394  and  _395
REMARK  158  A    between atoms: _394  and  _397
REMARK  159  A    between atoms: _397  and  _398
REMARK  160  A    between atoms: _404  and  _406
REMARK  161  A    between atoms: _406  and  _407
REMARK  162  A    between atoms: _406  and  _409
REMARK  163  A    between atoms: _409  and  _410
REMARK  164  A    between atoms: _413  and  _415
REMARK  165  A    between atoms: _415  and  _416
REMARK  166  A    between atoms: _415  and  _418
REMARK  167  A    between atoms: _418  and  _419
REMARK  168  A    between atoms: _422  and  _424
REMARK  169  A    between atoms: _424  and  _425
REMARK  170  A    between atoms: _424  and  _427
REMARK  171  A    between atoms: _427  and  _428
REMARK  172  A    between atoms: _428  and  _429
REMARK                            x       y       z     vdW  Elec       q    Type
REMARK                         _______ _______ _______ _____ _____    ______ ____
ROOT
ATOM      1  CA  THR A   1      23.991  40.058  79.515  0.00  0.00    +0.160 C 
ENDROOT
BRANCH   1   2
ATOM      2  N   THR A   1      22.578  40.568  79.531  0.00  0.00    -0.237 NA
ATOM      3  H   THR A   1      21.812  39.864  79.522  0.00  0.00    +0.142 HD
ENDBRANCH   1   2
BRANCH   1   4
ATOM      4  C   THR A   1      24.870  40.584  80.633  0.00  0.00    +0.227 C 
ATOM      5  O   THR A   1      25.917  41.222  80.375  0.00  0.00    -0.287 OA
ENDBRANCH   1   4
BRANCH   1   6
ATOM      6  CB  THR A   1      24.685  40.168  78.105  0.00  0.00    +0.134 C 
ATOM      7  CG2 THR A   1      23.695  39.844  76.998  0.00  0.00    +0.034 C 
BRANCH   6   8
ATOM      8  OG1 THR A   1      25.257  41.465  77.898  0.00  0.00    -0.383 OA
ATOM      9  HG1 THR A   1      24.545  42.151  77.951  0.00  0.00    +0.210 HD
ENDBRANCH   6   8
ENDBRANCH   1   6
TORSDOF 4
REMARK  Name = ../refined-set-2016/2jke/2jke_pocket.pdb
REMARK  172 active torsions:
REMARK  status: ('A' for Active; 'I' for Inactive)
REMARK    1  A    between atoms: _1  and  _3
REMARK    2  A    between atoms: _3  and  _4
REMARK    3  A    between atoms: _3  and  _6
REMARK    4  A    between atoms: _6  and  _7
REMARK    5  A    between atoms: _7  and  _8
REMARK    6  A    between atoms: _11  and  _13
REMARK    7  A    between atoms: _13  and  _14
REMARK    8  A    between atoms: _13  and  _16
REMARK    9  A    between atoms: _16  and  _17
REMARK   10  A    between atoms: _22  and  _24
REMARK   11  A    between atoms: _24  and  _25
REMARK   12  A    between atoms: _24  and  _27
REMARK   13  A    between atoms: _27  and  _28
REMARK   14  A    between atoms: _33  and  _34
REMARK   15  A    between atoms: _36  and  _38
REMARK   16  A    between atoms: _38  and  _39
REMARK   17  A    between atoms: _38  and  _41
REMARK   18  A    between atoms: _44  and  _46
REMARK   19  A    between atoms: _46  and  _47
REMARK   20  A    between atoms: _46  and  _49
REMARK   21  A    between atoms: _49  and  _50
REMARK   22  A    between atoms: _60  and  _62
REMARK   23  A    between atoms: _62  and  _63
REMARK   24  A    between atoms: _62  and  _65
REMARK   25  A    between atoms: _65  and  _66
REMARK   26  A    between atoms: _76  and  _78
REMARK   27  A    between atoms: _78  and  _79
REMARK   28  A    between atoms: _78  and  _81
REMARK   29  A    between atoms: _81  and  _82
REMARK   30  A    between atoms: _82  and  _83
REMARK   31  A    between atoms: _85  and  _87
REMARK   32  A    between atoms: _87  and  _88
REMARK   33  A    between atoms: _87  and  _90
REMARK   34  A    between atoms: _90  and  _91
REMARK   35  A    between atoms: _94  and  _96
REMARK   36  A    between atoms: _96  and  _97
REMARK   37  A    between atoms: _96  and  _99
REMARK   38  A    between atoms: _99  and  _100
REMARK   39  A    between atoms: _110  and  _112
REMARK   40  A    between atoms: _112  and  _113
REMARK   41  A    between atoms: _112  and  _115
REMARK   42  A    between atoms: _115  and  _116
REMARK   43  A    between atoms: _119  and  _121
REMARK   44  A    between atoms: _121  and  _122
REMARK   45  A    between atoms: _121  and  _124
REMARK   46  A    between atoms: _124  and  _125
REMARK   47  A    between atoms: _125  and  _126
REMARK   48  A    between atoms: _129  and  _131
REMARK   49  A    between atoms: _131  and  _132
REMARK   50  A    between atoms: _134  and  _136
REMARK   51  A    between atoms: _136  and  _137
REMARK   52  A    between atoms: _136  and  _139
REMARK   53  A    between atoms: _139  and  _140
REMARK   54  A    between atoms: _150  and  _152
REMARK   55  A    between atoms: _152  and  _153
REMARK   56  A    between atoms: _152  and  _155
REMARK   57  A    between atoms: _155  and  _156
REMARK   58  A    between atoms: _166  and  _168
REMARK   59  A    between atoms: _168  and  _169
REMARK   60  A    between atoms: _168  and  _171
REMARK   61  A    between atoms: _171  and  _172
REMARK   62  A    between atoms: _178  and  _180
REMARK   63  A    between atoms: _180  and  _181
REMARK   64  A    between atoms: _180  and  _183
REMARK   65  A    between atoms: _183  and  _184
REMARK   66  A    between atoms: _190  and  _192
REMARK   67  A    between atoms: _192  and  _193
REMARK   68  A    between atoms: _192  and  _195
REMARK   69  A    between atoms: _195  and  _196
REMARK   70  A    between atoms: _201  and  _203
REMARK   71  A    between atoms: _203  and  _204
REMARK   72  A    between atoms: _203  and  _206
REMARK   73  A    between atoms: _206  and  _207
REMARK   74  A    between atoms: _212  and  _214
REMARK   75  A    between atoms: _214  and  _215
REMARK   76  A    between atoms: _214  and  _217
REMARK   77  A    between atoms: _217  and  _218
REMARK   78  A    between atoms: _218  and  _219
REMARK   79  A    between atoms: _222  and  _224
REMARK   80  A    between atoms: _224  and  _225
REMARK   81  A    between atoms: _224  and  _227
REMARK   82  A    between atoms: _227  and  _228
REMARK   83  A    between atoms: _231  and  _233
REMARK   84  A    between atoms: _233  and  _234
REMARK   85  A    between atoms: _233  and  _236
REMARK   86  A    between atoms: _236  and  _237
REMARK   87  A    between atoms: _239  and  _241
REMARK   88  A    between atoms: _241  and  _242
REMARK   89  A    between atoms: _241  and  _244
REMARK   90  A    between atoms: _244  and  _245
REMARK   91  A    between atoms: _245  and  _246
REMARK   92  A    between atoms: _246  and  _247
REMARK   93  A    between atoms: _247  and  _248
REMARK   94  A    between atoms: _252  and  _254
REMARK   95  A    between atoms: _254  and  _255
REMARK   96  A    between atoms: _254  and  _257
REMARK   97  A    between atoms: _257  and  _258
REMARK   98  A    between atoms: _260  and  _262
REMARK   99  A    between atoms: _262  and  _263
REMARK  100  A    between atoms: _265  and  _267
REMARK  101  A    between atoms: _267  and  _268
REMARK  102  A    between atoms: _267  and  _270
REMARK  103  A    between atoms: _270  and  _271
REMARK  104  A    between atoms: _276  and  _277
REMARK  105  A    between atoms: _279  and  _281
REMARK  106  A    between atoms: _281  and  _282
REMARK  107  A    between atoms: _281  and  _284
REMARK  108  A    between atoms: _287  and  _289
REMARK  109  A    between atoms: _289  and  _290
REMARK  110  A    between atoms: _292  and  _294
REMARK  111  A    between atoms: _294  and  _295
REMARK  112  A    between atoms: _294  and  _297
REMARK  113  A    between atoms: _297  and  _298
REMARK  114  A    between atoms: _303  and  _305
REMARK  115  A    between atoms: _305  and  _306
REMARK  116  A    between atoms: _309  and  _311
REMARK  117  A    between atoms: _311  and  _312
REMARK  118  A    between atoms: _311  and  _314
REMARK  119  A    between atoms: _314  and  _315
REMARK  120  A    between atoms: _320  and  _322
REMARK  121  A    between atoms: _322  and  _323
REMARK  122  A    between atoms: _322  and  _325
REMARK  123  A    between atoms: _325  and  _326
REMARK  124  A    between atoms: _326  and  _327
REMARK  125  A    between atoms: _327  and  _329
REMARK  126  A    between atoms: _329  and  CA_431
REMARK  127  A    between atoms: _330  and  _332
REMARK  128  A    between atoms: _332  and  _333
REMARK  129  A    between atoms: _332  and  _335
REMARK  130  A    between atoms: _335  and  _336
REMARK  131  A    between atoms: _336  and  _337
REMARK  132  A    between atoms: _337  and  _338
REMARK  133  A    between atoms: _338  and  CA_431
REMARK  134  A    between atoms: _340  and  _342
REMARK  135  A    between atoms: _342  and  _343
REMARK  136  A    between atoms: _342  and  _345
REMARK  137  A    between atoms: _345  and  _346
REMARK  138  A    between atoms: _348  and  _350
REMARK  139  A    between atoms: _350  and  _351
REMARK  140  A    between atoms: _354  and  _356
REMARK  141  A    between atoms: _356  and  _357
REMARK  142  A    between atoms: _359  and  _361
REMARK  143  A    between atoms: _361  and  _362
REMARK  144  A    between atoms: _361  and  _364
REMARK  145  A    between atoms: _364  and  _365
REMARK  146  A    between atoms: _368  and  _370
REMARK  147  A    between atoms: _370  and  _371
REMARK  148  A    between atoms: _370  and  _373
REMARK  149  A    between atoms: _373  and  _374
REMARK  150  A    between atoms: _374  and  _375
REMARK  151  A    between atoms: _378  and  _380
REMARK  152  A    between atoms: _380  and  _381
REMARK  153  A    between atoms: _380  and  _383
REMARK  154  A    between atoms: _383  and  _384
REMARK  155  A    between atoms: _389  and  _390
REMARK  156  A    between atoms: _392  and  _394
REMARK  157  A    between atoms: _394  and  _395
REMARK  158  A    between atoms: _394  and  _397
REMARK  159  A    between atoms: _397  and  _398
REMARK  160  A    between atoms: _404  and  _406
REMARK  161  A    between atoms: _406  and  _407
REMARK  162  A    between atoms: _406  and  _409
REMARK  163  A    between atoms: _409  and  _410
REMARK  164  A    between atoms: _413  and  _415
REMARK  165  A    between atoms: _415  and  _416
REMARK  166  A    between atoms: _415  and  _418
REMARK  167  A    between atoms: _418  and  _419
REMARK  168  A    between atoms: _422  and  _424
REMARK  169  A    between atoms: _424  and  _425
REMARK  170  A    between atoms: _424  and  _427
REMARK  171  A    between atoms: _427  and  _428
REMARK  172  A    between atoms: _428  and  _429
REMARK                            x       y       z     vdW  Elec       q    Type
REMARK                         _______ _______ _______ _____ _____    ______ ____
ROOT
ATOM      1  CA  MET A   1      24.485  35.265  80.082  0.00  0.00    +0.134 C 
ENDROOT
BRANCH   1   2
ATOM      2  N   MET A   1      23.070  35.332  80.486  0.00  0.00    -0.239 NA
ATOM      3  H   MET A   1      22.546  36.221  80.353  0.00  0.00    +0.142 HD
ENDBRANCH   1   2
BRANCH   1   4
ATOM      4  C   MET A   1      25.417  35.611  81.254  0.00  0.00    +0.224 C 
ATOM      5  O   MET A   1      25.111  36.458  82.098  0.00  0.00    -0.287 OA
ENDBRANCH   1   4
BRANCH   1   6
ATOM      6  CB  MET A   1      24.729  36.221  78.927  0.00  0.00    +0.037 C 
BRANCH   6   7
ATOM      7  CG  MET A   1      25.944  35.844  78.091  0.00  0.00    +0.059 C 
BRANCH   7   8
ATOM      8  SD  MET A   1      26.178  37.021  76.772  0.00  0.00    -0.139 S 
ATOM      9  CE  MET A   1      27.537  36.188  75.888  0.00  0.00    +0.069 C 
ENDBRANCH   7   8
ENDBRANCH   6   7
ENDBRANCH   1   6
TORSDOF 5
REMARK  Name = ../refined-set-2016/2jke/2jke_pocket.pdb
REMARK  172 active torsions:
REMARK  status: ('A' for Active; 'I' for Inactive)
REMARK    1  A    between atoms: _1  and  _3
REMARK    2  A    between atoms: _3  and  _4
REMARK    3  A    between atoms: _3  and  _6
REMARK    4  A    between atoms: _6  and  _7
REMARK    5  A    between atoms: _7  and  _8
REMARK    6  A    between atoms: _11  and  _13
REMARK    7  A    between atoms: _13  and  _14
REMARK    8  A    between atoms: _13  and  _16
REMARK    9  A    between atoms: _16  and  _17
REMARK   10  A    between atoms: _22  and  _24
REMARK   11  A    between atoms: _24  and  _25
REMARK   12  A    between atoms: _24  and  _27
REMARK   13  A    between atoms: _27  and  _28
REMARK   14  A    between atoms: _33  and  _34
REMARK   15  A    between atoms: _36  and  _38
REMARK   16  A    between atoms: _38  and  _39
REMARK   17  A    between atoms: _38  and  _41
REMARK   18  A    between atoms: _44  and  _46
REMARK   19  A    between atoms: _46  and  _47
REMARK   20  A    between atoms: _46  and  _49
REMARK   21  A    between atoms: _49  and  _50
REMARK   22  A    between atoms: _60  and  _62
REMARK   23  A    between atoms: _62  and  _63
REMARK   24  A    between atoms: _62  and  _65
REMARK   25  A    between atoms: _65  and  _66
REMARK   26  A    between atoms: _76  and  _78
REMARK   27  A    between atoms: _78  and  _79
REMARK   28  A    between atoms: _78  and  _81
REMARK   29  A    between atoms: _81  and  _82
REMARK   30  A    between atoms: _82  and  _83
REMARK   31  A    between atoms: _85  and  _87
REMARK   32  A    between atoms: _87  and  _88
REMARK   33  A    between atoms: _87  and  _90
REMARK   34  A    between atoms: _90  and  _91
REMARK   35  A    between atoms: _94  and  _96
REMARK   36  A    between atoms: _96  and  _97
REMARK   37  A    between atoms: _96  and  _99
REMARK   38  A    between atoms: _99  and  _100
REMARK   39  A    between atoms: _110  and  _112
REMARK   40  A    between atoms: _112  and  _113
REMARK   41  A    between atoms: _112  and  _115
REMARK   42  A    between atoms: _115  and  _116
REMARK   43  A    between atoms: _119  and  _121
REMARK   44  A    between atoms: _121  and  _122
REMARK   45  A    between atoms: _121  and  _124
REMARK   46  A    between atoms: _124  and  _125
REMARK   47  A    between atoms: _125  and  _126
REMARK   48  A    between atoms: _129  and  _131
REMARK   49  A    between atoms: _131  and  _132
REMARK   50  A    between atoms: _134  and  _136
REMARK   51  A    between atoms: _136  and  _137
REMARK   52  A    between atoms: _136  and  _139
REMARK   53  A    between atoms: _139  and  _140
REMARK   54  A    between atoms: _150  and  _152
REMARK   55  A    between atoms: _152  and  _153
REMARK   56  A    between atoms: _152  and  _155
REMARK   57  A    between atoms: _155  and  _156
REMARK   58  A    between atoms: _166  and  _168
REMARK   59  A    between atoms: _168  and  _169
REMARK   60  A    between atoms: _168  and  _171
REMARK   61  A    between atoms: _171  and  _172
REMARK   62  A    between atoms: _178  and  _180
REMARK   63  A    between atoms: _180  and  _181
REMARK   64  A    between atoms: _180  and  _183
REMARK   65  A    between atoms: _183  and  _184
REMARK   66  A    between atoms: _190  and  _192
REMARK   67  A    between atoms: _192  and  _193
REMARK   68  A    between atoms: _192  and  _195
REMARK   69  A    between atoms: _195  and  _196
REMARK   70  A    between atoms: _201  and  _203
REMARK   71  A    between atoms: _203  and  _204
REMARK   72  A    between atoms: _203  and  _206
REMARK   73  A    between atoms: _206  and  _207
REMARK   74  A    between atoms: _212  and  _214
REMARK   75  A    between atoms: _214  and  _215
REMARK   76  A    between atoms: _214  and  _217
REMARK   77  A    between atoms: _217  and  _218
REMARK   78  A    between atoms: _218  and  _219
REMARK   79  A    between atoms: _222  and  _224
REMARK   80  A    between atoms: _224  and  _225
REMARK   81  A    between atoms: _224  and  _227
REMARK   82  A    between atoms: _227  and  _228
REMARK   83  A    between atoms: _231  and  _233
REMARK   84  A    between atoms: _233  and  _234
REMARK   85  A    between atoms: _233  and  _236
REMARK   86  A    between atoms: _236  and  _237
REMARK   87  A    between atoms: _239  and  _241
REMARK   88  A    between atoms: _241  and  _242
REMARK   89  A    between atoms: _241  and  _244
REMARK   90  A    between atoms: _244  and  _245
REMARK   91  A    between atoms: _245  and  _246
REMARK   92  A    between atoms: _246  and  _247
REMARK   93  A    between atoms: _247  and  _248
REMARK   94  A    between atoms: _252  and  _254
REMARK   95  A    between atoms: _254  and  _255
REMARK   96  A    between atoms: _254  and  _257
REMARK   97  A    between atoms: _257  and  _258
REMARK   98  A    between atoms: _260  and  _262
REMARK   99  A    between atoms: _262  and  _263
REMARK  100  A    between atoms: _265  and  _267
REMARK  101  A    between atoms: _267  and  _268
REMARK  102  A    between atoms: _267  and  _270
REMARK  103  A    between atoms: _270  and  _271
REMARK  104  A    between atoms: _276  and  _277
REMARK  105  A    between atoms: _279  and  _281
REMARK  106  A    between atoms: _281  and  _282
REMARK  107  A    between atoms: _281  and  _284
REMARK  108  A    between atoms: _287  and  _289
REMARK  109  A    between atoms: _289  and  _290
REMARK  110  A    between atoms: _292  and  _294
REMARK  111  A    between atoms: _294  and  _295
REMARK  112  A    between atoms: _294  and  _297
REMARK  113  A    between atoms: _297  and  _298
REMARK  114  A    between atoms: _303  and  _305
REMARK  115  A    between atoms: _305  and  _306
REMARK  116  A    between atoms: _309  and  _311
REMARK  117  A    between atoms: _311  and  _312
REMARK  118  A    between atoms: _311  and  _314
REMARK  119  A    between atoms: _314  and  _315
REMARK  120  A    between atoms: _320  and  _322
REMARK  121  A    between atoms: _322  and  _323
REMARK  122  A    between atoms: _322  and  _325
REMARK  123  A    between atoms: _325  and  _326
REMARK  124  A    between atoms: _326  and  _327
REMARK  125  A    between atoms: _327  and  _329
REMARK  126  A    between atoms: _329  and  CA_431
REMARK  127  A    between atoms: _330  and  _332
REMARK  128  A    between atoms: _332  and  _333
REMARK  129  A    between atoms: _332  and  _335
REMARK  130  A    between atoms: _335  and  _336
REMARK  131  A    between atoms: _336  and  _337
REMARK  132  A    between atoms: _337  and  _338
REMARK  133  A    between atoms: _338  and  CA_431
REMARK  134  A    between atoms: _340  and  _342
REMARK  135  A    between atoms: _342  and  _343
REMARK  136  A    between atoms: _342  and  _345
REMARK  137  A    between atoms: _345  and  _346
REMARK  138  A    between atoms: _348  and  _350
REMARK  139  A    between atoms: _350  and  _351
REMARK  140  A    between atoms: _354  and  _356
REMARK  141  A    between atoms: _356  and  _357
REMARK  142  A    between atoms: _359  and  _361
REMARK  143  A    between atoms: _361  and  _362
REMARK  144  A    between atoms: _361  and  _364
REMARK  145  A    between atoms: _364  and  _365
REMARK  146  A    between atoms: _368  and  _370
REMARK  147  A    between atoms: _370  and  _371
REMARK  148  A    between atoms: _370  and  _373
REMARK  149  A    between atoms: _373  and  _374
REMARK  150  A    between atoms: _374  and  _375
REMARK  151  A    between atoms: _378  and  _380
REMARK  152  A    between atoms: _380  and  _381
REMARK  153  A    between atoms: _380  and  _383
REMARK  154  A    between atoms: _383  and  _384
REMARK  155  A    between atoms: _389  and  _390
REMARK  156  A    between atoms: _392  and  _394
REMARK  157  A    between atoms: _394  and  _395
REMARK  158  A    between atoms: _394  and  _397
REMARK  159  A    between atoms: _397  and  _398
REMARK  160  A    between atoms: _404  and  _406
REMARK  161  A    between atoms: _406  and  _407
REMARK  162  A    between atoms: _406  and  _409
REMARK  163  A    between atoms: _409  and  _410
REMARK  164  A    between atoms: _413  and  _415
REMARK  165  A    between atoms: _415  and  _416
REMARK  166  A    between atoms: _415  and  _418
REMARK  167  A    between atoms: _418  and  _419
REMARK  168  A    between atoms: _422  and  _424
REMARK  169  A    between atoms: _424  and  _425
REMARK  170  A    between atoms: _424  and  _427
REMARK  171  A    between atoms: _427  and  _428
REMARK  172  A    between atoms: _428  and  _429
REMARK                            x       y       z     vdW  Elec       q    Type
REMARK                         _______ _______ _______ _____ _____    ______ ____
ROOT
ATOM      1  O   HOH     1      18.411  49.871  68.560  0.00  0.00    +0.000 OA
ENDROOT
TORSDOF 0
REMARK  Name = ../refined-set-2016/2jke/2jke_pocket.pdb
REMARK  172 active torsions:
REMARK  status: ('A' for Active; 'I' for Inactive)
REMARK    1  A    between atoms: _1  and  _3
REMARK    2  A    between atoms: _3  and  _4
REMARK    3  A    between atoms: _3  and  _6
REMARK    4  A    between atoms: _6  and  _7
REMARK    5  A    between atoms: _7  and  _8
REMARK    6  A    between atoms: _11  and  _13
REMARK    7  A    between atoms: _13  and  _14
REMARK    8  A    between atoms: _13  and  _16
REMARK    9  A    between atoms: _16  and  _17
REMARK   10  A    between atoms: _22  and  _24
REMARK   11  A    between atoms: _24  and  _25
REMARK   12  A    between atoms: _24  and  _27
REMARK   13  A    between atoms: _27  and  _28
REMARK   14  A    between atoms: _33  and  _34
REMARK   15  A    between atoms: _36  and  _38
REMARK   16  A    between atoms: _38  and  _39
REMARK   17  A    between atoms: _38  and  _41
REMARK   18  A    between atoms: _44  and  _46
REMARK   19  A    between atoms: _46  and  _47
REMARK   20  A    between atoms: _46  and  _49
REMARK   21  A    between atoms: _49  and  _50
REMARK   22  A    between atoms: _60  and  _62
REMARK   23  A    between atoms: _62  and  _63
REMARK   24  A    between atoms: _62  and  _65
REMARK   25  A    between atoms: _65  and  _66
REMARK   26  A    between atoms: _76  and  _78
REMARK   27  A    between atoms: _78  and  _79
REMARK   28  A    between atoms: _78  and  _81
REMARK   29  A    between atoms: _81  and  _82
REMARK   30  A    between atoms: _82  and  _83
REMARK   31  A    between atoms: _85  and  _87
REMARK   32  A    between atoms: _87  and  _88
REMARK   33  A    between atoms: _87  and  _90
REMARK   34  A    between atoms: _90  and  _91
REMARK   35  A    between atoms: _94  and  _96
REMARK   36  A    between atoms: _96  and  _97
REMARK   37  A    between atoms: _96  and  _99
REMARK   38  A    between atoms: _99  and  _100
REMARK   39  A    between atoms: _110  and  _112
REMARK   40  A    between atoms: _112  and  _113
REMARK   41  A    between atoms: _112  and  _115
REMARK   42  A    between atoms: _115  and  _116
REMARK   43  A    between atoms: _119  and  _121
REMARK   44  A    between atoms: _121  and  _122
REMARK   45  A    between atoms: _121  and  _124
REMARK   46  A    between atoms: _124  and  _125
REMARK   47  A    between atoms: _125  and  _126
REMARK   48  A    between atoms: _129  and  _131
REMARK   49  A    between atoms: _131  and  _132
REMARK   50  A    between atoms: _134  and  _136
REMARK   51  A    between atoms: _136  and  _137
REMARK   52  A    between atoms: _136  and  _139
REMARK   53  A    between atoms: _139  and  _140
REMARK   54  A    between atoms: _150  and  _152
REMARK   55  A    between atoms: _152  and  _153
REMARK   56  A    between atoms: _152  and  _155
REMARK   57  A    between atoms: _155  and  _156
REMARK   58  A    between atoms: _166  and  _168
REMARK   59  A    between atoms: _168  and  _169
REMARK   60  A    between atoms: _168  and  _171
REMARK   61  A    between atoms: _171  and  _172
REMARK   62  A    between atoms: _178  and  _180
REMARK   63  A    between atoms: _180  and  _181
REMARK   64  A    between atoms: _180  and  _183
REMARK   65  A    between atoms: _183  and  _184
REMARK   66  A    between atoms: _190  and  _192
REMARK   67  A    between atoms: _192  and  _193
REMARK   68  A    between atoms: _192  and  _195
REMARK   69  A    between atoms: _195  and  _196
REMARK   70  A    between atoms: _201  and  _203
REMARK   71  A    between atoms: _203  and  _204
REMARK   72  A    between atoms: _203  and  _206
REMARK   73  A    between atoms: _206  and  _207
REMARK   74  A    between atoms: _212  and  _214
REMARK   75  A    between atoms: _214  and  _215
REMARK   76  A    between atoms: _214  and  _217
REMARK   77  A    between atoms: _217  and  _218
REMARK   78  A    between atoms: _218  and  _219
REMARK   79  A    between atoms: _222  and  _224
REMARK   80  A    between atoms: _224  and  _225
REMARK   81  A    between atoms: _224  and  _227
REMARK   82  A    between atoms: _227  and  _228
REMARK   83  A    between atoms: _231  and  _233
REMARK   84  A    between atoms: _233  and  _234
REMARK   85  A    between atoms: _233  and  _236
REMARK   86  A    between atoms: _236  and  _237
REMARK   87  A    between atoms: _239  and  _241
REMARK   88  A    between atoms: _241  and  _242
REMARK   89  A    between atoms: _241  and  _244
REMARK   90  A    between atoms: _244  and  _245
REMARK   91  A    between atoms: _245  and  _246
REMARK   92  A    between atoms: _246  and  _247
REMARK   93  A    between atoms: _247  and  _248
REMARK   94  A    between atoms: _252  and  _254
REMARK   95  A    between atoms: _254  and  _255
REMARK   96  A    between atoms: _254  and  _257
REMARK   97  A    between atoms: _257  and  _258
REMARK   98  A    between atoms: _260  and  _262
REMARK   99  A    between atoms: _262  and  _263
REMARK  100  A    between atoms: _265  and  _267
REMARK  101  A    between atoms: _267  and  _268
REMARK  102  A    between atoms: _267  and  _270
REMARK  103  A    between atoms: _270  and  _271
REMARK  104  A    between atoms: _276  and  _277
REMARK  105  A    between atoms: _279  and  _281
REMARK  106  A    between atoms: _281  and  _282
REMARK  107  A    between atoms: _281  and  _284
REMARK  108  A    between atoms: _287  and  _289
REMARK  109  A    between atoms: _289  and  _290
REMARK  110  A    between atoms: _292  and  _294
REMARK  111  A    between atoms: _294  and  _295
REMARK  112  A    between atoms: _294  and  _297
REMARK  113  A    between atoms: _297  and  _298
REMARK  114  A    between atoms: _303  and  _305
REMARK  115  A    between atoms: _305  and  _306
REMARK  116  A    between atoms: _309  and  _311
REMARK  117  A    between atoms: _311  and  _312
REMARK  118  A    between atoms: _311  and  _314
REMARK  119  A    between atoms: _314  and  _315
REMARK  120  A    between atoms: _320  and  _322
REMARK  121  A    between atoms: _322  and  _323
REMARK  122  A    between atoms: _322  and  _325
REMARK  123  A    between atoms: _325  and  _326
REMARK  124  A    between atoms: _326  and  _327
REMARK  125  A    between atoms: _327  and  _329
REMARK  126  A    between atoms: _329  and  CA_431
REMARK  127  A    between atoms: _330  and  _332
REMARK  128  A    between atoms: _332  and  _333
REMARK  129  A    between atoms: _332  and  _335
REMARK  130  A    between atoms: _335  and  _336
REMARK  131  A    between atoms: _336  and  _337
REMARK  132  A    between atoms: _337  and  _338
REMARK  133  A    between atoms: _338  and  CA_431
REMARK  134  A    between atoms: _340  and  _342
REMARK  135  A    between atoms: _342  and  _343
REMARK  136  A    between atoms: _342  and  _345
REMARK  137  A    between atoms: _345  and  _346
REMARK  138  A    between atoms: _348  and  _350
REMARK  139  A    between atoms: _350  and  _351
REMARK  140  A    between atoms: _354  and  _356
REMARK  141  A    between atoms: _356  and  _357
REMARK  142  A    between atoms: _359  and  _361
REMARK  143  A    between atoms: _361  and  _362
REMARK  144  A    between atoms: _361  and  _364
REMARK  145  A    between atoms: _364  and  _365
REMARK  146  A    between atoms: _368  and  _370
REMARK  147  A    between atoms: _370  and  _371
REMARK  148  A    between atoms: _370  and  _373
REMARK  149  A    between atoms: _373  and  _374
REMARK  150  A    between atoms: _374  and  _375
REMARK  151  A    between atoms: _378  and  _380
REMARK  152  A    between atoms: _380  and  _381
REMARK  153  A    between atoms: _380  and  _383
REMARK  154  A    between atoms: _383  and  _384
REMARK  155  A    between atoms: _389  and  _390
REMARK  156  A    between atoms: _392  and  _394
REMARK  157  A    between atoms: _394  and  _395
REMARK  158  A    between atoms: _394  and  _397
REMARK  159  A    between atoms: _397  and  _398
REMARK  160  A    between atoms: _404  and  _406
REMARK  161  A    between atoms: _406  and  _407
REMARK  162  A    between atoms: _406  and  _409
REMARK  163  A    between atoms: _409  and  _410
REMARK  164  A    between atoms: _413  and  _415
REMARK  165  A    between atoms: _415  and  _416
REMARK  166  A    between atoms: _415  and  _418
REMARK  167  A    between atoms: _418  and  _419
REMARK  168  A    between atoms: _422  and  _424
REMARK  169  A    between atoms: _424  and  _425
REMARK  170  A    between atoms: _424  and  _427
REMARK  171  A    between atoms: _427  and  _428
REMARK  172  A    between atoms: _428  and  _429
REMARK                            x       y       z     vdW  Elec       q    Type
REMARK                         _______ _______ _______ _____ _____    ______ ____
ROOT
ATOM      1  O   HOH     1      16.752  48.297  70.349  0.00  0.00    +0.000 OA
ENDROOT
TORSDOF 0
REMARK  Name = ../refined-set-2016/2jke/2jke_pocket.pdb
REMARK  172 active torsions:
REMARK  status: ('A' for Active; 'I' for Inactive)
REMARK    1  A    between atoms: _1  and  _3
REMARK    2  A    between atoms: _3  and  _4
REMARK    3  A    between atoms: _3  and  _6
REMARK    4  A    between atoms: _6  and  _7
REMARK    5  A    between atoms: _7  and  _8
REMARK    6  A    between atoms: _11  and  _13
REMARK    7  A    between atoms: _13  and  _14
REMARK    8  A    between atoms: _13  and  _16
REMARK    9  A    between atoms: _16  and  _17
REMARK   10  A    between atoms: _22  and  _24
REMARK   11  A    between atoms: _24  and  _25
REMARK   12  A    between atoms: _24  and  _27
REMARK   13  A    between atoms: _27  and  _28
REMARK   14  A    between atoms: _33  and  _34
REMARK   15  A    between atoms: _36  and  _38
REMARK   16  A    between atoms: _38  and  _39
REMARK   17  A    between atoms: _38  and  _41
REMARK   18  A    between atoms: _44  and  _46
REMARK   19  A    between atoms: _46  and  _47
REMARK   20  A    between atoms: _46  and  _49
REMARK   21  A    between atoms: _49  and  _50
REMARK   22  A    between atoms: _60  and  _62
REMARK   23  A    between atoms: _62  and  _63
REMARK   24  A    between atoms: _62  and  _65
REMARK   25  A    between atoms: _65  and  _66
REMARK   26  A    between atoms: _76  and  _78
REMARK   27  A    between atoms: _78  and  _79
REMARK   28  A    between atoms: _78  and  _81
REMARK   29  A    between atoms: _81  and  _82
REMARK   30  A    between atoms: _82  and  _83
REMARK   31  A    between atoms: _85  and  _87
REMARK   32  A    between atoms: _87  and  _88
REMARK   33  A    between atoms: _87  and  _90
REMARK   34  A    between atoms: _90  and  _91
REMARK   35  A    between atoms: _94  and  _96
REMARK   36  A    between atoms: _96  and  _97
REMARK   37  A    between atoms: _96  and  _99
REMARK   38  A    between atoms: _99  and  _100
REMARK   39  A    between atoms: _110  and  _112
REMARK   40  A    between atoms: _112  and  _113
REMARK   41  A    between atoms: _112  and  _115
REMARK   42  A    between atoms: _115  and  _116
REMARK   43  A    between atoms: _119  and  _121
REMARK   44  A    between atoms: _121  and  _122
REMARK   45  A    between atoms: _121  and  _124
REMARK   46  A    between atoms: _124  and  _125
REMARK   47  A    between atoms: _125  and  _126
REMARK   48  A    between atoms: _129  and  _131
REMARK   49  A    between atoms: _131  and  _132
REMARK   50  A    between atoms: _134  and  _136
REMARK   51  A    between atoms: _136  and  _137
REMARK   52  A    between atoms: _136  and  _139
REMARK   53  A    between atoms: _139  and  _140
REMARK   54  A    between atoms: _150  and  _152
REMARK   55  A    between atoms: _152  and  _153
REMARK   56  A    between atoms: _152  and  _155
REMARK   57  A    between atoms: _155  and  _156
REMARK   58  A    between atoms: _166  and  _168
REMARK   59  A    between atoms: _168  and  _169
REMARK   60  A    between atoms: _168  and  _171
REMARK   61  A    between atoms: _171  and  _172
REMARK   62  A    between atoms: _178  and  _180
REMARK   63  A    between atoms: _180  and  _181
REMARK   64  A    between atoms: _180  and  _183
REMARK   65  A    between atoms: _183  and  _184
REMARK   66  A    between atoms: _190  and  _192
REMARK   67  A    between atoms: _192  and  _193
REMARK   68  A    between atoms: _192  and  _195
REMARK   69  A    between atoms: _195  and  _196
REMARK   70  A    between atoms: _201  and  _203
REMARK   71  A    between atoms: _203  and  _204
REMARK   72  A    between atoms: _203  and  _206
REMARK   73  A    between atoms: _206  and  _207
REMARK   74  A    between atoms: _212  and  _214
REMARK   75  A    between atoms: _214  and  _215
REMARK   76  A    between atoms: _214  and  _217
REMARK   77  A    between atoms: _217  and  _218
REMARK   78  A    between atoms: _218  and  _219
REMARK   79  A    between atoms: _222  and  _224
REMARK   80  A    between atoms: _224  and  _225
REMARK   81  A    between atoms: _224  and  _227
REMARK   82  A    between atoms: _227  and  _228
REMARK   83  A    between atoms: _231  and  _233
REMARK   84  A    between atoms: _233  and  _234
REMARK   85  A    between atoms: _233  and  _236
REMARK   86  A    between atoms: _236  and  _237
REMARK   87  A    between atoms: _239  and  _241
REMARK   88  A    between atoms: _241  and  _242
REMARK   89  A    between atoms: _241  and  _244
REMARK   90  A    between atoms: _244  and  _245
REMARK   91  A    between atoms: _245  and  _246
REMARK   92  A    between atoms: _246  and  _247
REMARK   93  A    between atoms: _247  and  _248
REMARK   94  A    between atoms: _252  and  _254
REMARK   95  A    between atoms: _254  and  _255
REMARK   96  A    between atoms: _254  and  _257
REMARK   97  A    between atoms: _257  and  _258
REMARK   98  A    between atoms: _260  and  _262
REMARK   99  A    between atoms: _262  and  _263
REMARK  100  A    between atoms: _265  and  _267
REMARK  101  A    between atoms: _267  and  _268
REMARK  102  A    between atoms: _267  and  _270
REMARK  103  A    between atoms: _270  and  _271
REMARK  104  A    between atoms: _276  and  _277
REMARK  105  A    between atoms: _279  and  _281
REMARK  106  A    between atoms: _281  and  _282
REMARK  107  A    between atoms: _281  and  _284
REMARK  108  A    between atoms: _287  and  _289
REMARK  109  A    between atoms: _289  and  _290
REMARK  110  A    between atoms: _292  and  _294
REMARK  111  A    between atoms: _294  and  _295
REMARK  112  A    between atoms: _294  and  _297
REMARK  113  A    between atoms: _297  and  _298
REMARK  114  A    between atoms: _303  and  _305
REMARK  115  A    between atoms: _305  and  _306
REMARK  116  A    between atoms: _309  and  _311
REMARK  117  A    between atoms: _311  and  _312
REMARK  118  A    between atoms: _311  and  _314
REMARK  119  A    between atoms: _314  and  _315
REMARK  120  A    between atoms: _320  and  _322
REMARK  121  A    between atoms: _322  and  _323
REMARK  122  A    between atoms: _322  and  _325
REMARK  123  A    between atoms: _325  and  _326
REMARK  124  A    between atoms: _326  and  _327
REMARK  125  A    between atoms: _327  and  _329
REMARK  126  A    between atoms: _329  and  CA_431
REMARK  127  A    between atoms: _330  and  _332
REMARK  128  A    between atoms: _332  and  _333
REMARK  129  A    between atoms: _332  and  _335
REMARK  130  A    between atoms: _335  and  _336
REMARK  131  A    between atoms: _336  and  _337
REMARK  132  A    between atoms: _337  and  _338
REMARK  133  A    between atoms: _338  and  CA_431
REMARK  134  A    between atoms: _340  and  _342
REMARK  135  A    between atoms: _342  and  _343
REMARK  136  A    between atoms: _342  and  _345
REMARK  137  A    between atoms: _345  and  _346
REMARK  138  A    between atoms: _348  and  _350
REMARK  139  A    between atoms: _350  and  _351
REMARK  140  A    between atoms: _354  and  _356
REMARK  141  A    between atoms: _356  and  _357
REMARK  142  A    between atoms: _359  and  _361
REMARK  143  A    between atoms: _361  and  _362
REMARK  144  A    between atoms: _361  and  _364
REMARK  145  A    between atoms: _364  and  _365
REMARK  146  A    between atoms: _368  and  _370
REMARK  147  A    between atoms: _370  and  _371
REMARK  148  A    between atoms: _370  and  _373
REMARK  149  A    between atoms: _373  and  _374
REMARK  150  A    between atoms: _374  and  _375
REMARK  151  A    between atoms: _378  and  _380
REMARK  152  A    between atoms: _380  and  _381
REMARK  153  A    between atoms: _380  and  _383
REMARK  154  A    between atoms: _383  and  _384
REMARK  155  A    between atoms: _389  and  _390
REMARK  156  A    between atoms: _392  and  _394
REMARK  157  A    between atoms: _394  and  _395
REMARK  158  A    between atoms: _394  and  _397
REMARK  159  A    between atoms: _397  and  _398
REMARK  160  A    between atoms: _404  and  _406
REMARK  161  A    between atoms: _406  and  _407
REMARK  162  A    between atoms: _406  and  _409
REMARK  163  A    between atoms: _409  and  _410
REMARK  164  A    between atoms: _413  and  _415
REMARK  165  A    between atoms: _415  and  _416
REMARK  166  A    between atoms: _415  and  _418
REMARK  167  A    between atoms: _418  and  _419
REMARK  168  A    between atoms: _422  and  _424
REMARK  169  A    between atoms: _424  and  _425
REMARK  170  A    between atoms: _424  and  _427
REMARK  171  A    between atoms: _427  and  _428
REMARK  172  A    between atoms: _428  and  _429
REMARK                            x       y       z     vdW  Elec       q    Type
REMARK                         _______ _______ _______ _____ _____    ______ ____
ROOT
ATOM      1  O   HOH     1      20.967  49.280  67.412  0.00  0.00    +0.000 OA
ENDROOT
TORSDOF 0
REMARK  Name = ../refined-set-2016/2jke/2jke_pocket.pdb
REMARK  172 active torsions:
REMARK  status: ('A' for Active; 'I' for Inactive)
REMARK    1  A    between atoms: _1  and  _3
REMARK    2  A    between atoms: _3  and  _4
REMARK    3  A    between atoms: _3  and  _6
REMARK    4  A    between atoms: _6  and  _7
REMARK    5  A    between atoms: _7  and  _8
REMARK    6  A    between atoms: _11  and  _13
REMARK    7  A    between atoms: _13  and  _14
REMARK    8  A    between atoms: _13  and  _16
REMARK    9  A    between atoms: _16  and  _17
REMARK   10  A    between atoms: _22  and  _24
REMARK   11  A    between atoms: _24  and  _25
REMARK   12  A    between atoms: _24  and  _27
REMARK   13  A    between atoms: _27  and  _28
REMARK   14  A    between atoms: _33  and  _34
REMARK   15  A    between atoms: _36  and  _38
REMARK   16  A    between atoms: _38  and  _39
REMARK   17  A    between atoms: _38  and  _41
REMARK   18  A    between atoms: _44  and  _46
REMARK   19  A    between atoms: _46  and  _47
REMARK   20  A    between atoms: _46  and  _49
REMARK   21  A    between atoms: _49  and  _50
REMARK   22  A    between atoms: _60  and  _62
REMARK   23  A    between atoms: _62  and  _63
REMARK   24  A    between atoms: _62  and  _65
REMARK   25  A    between atoms: _65  and  _66
REMARK   26  A    between atoms: _76  and  _78
REMARK   27  A    between atoms: _78  and  _79
REMARK   28  A    between atoms: _78  and  _81
REMARK   29  A    between atoms: _81  and  _82
REMARK   30  A    between atoms: _82  and  _83
REMARK   31  A    between atoms: _85  and  _87
REMARK   32  A    between atoms: _87  and  _88
REMARK   33  A    between atoms: _87  and  _90
REMARK   34  A    between atoms: _90  and  _91
REMARK   35  A    between atoms: _94  and  _96
REMARK   36  A    between atoms: _96  and  _97
REMARK   37  A    between atoms: _96  and  _99
REMARK   38  A    between atoms: _99  and  _100
REMARK   39  A    between atoms: _110  and  _112
REMARK   40  A    between atoms: _112  and  _113
REMARK   41  A    between atoms: _112  and  _115
REMARK   42  A    between atoms: _115  and  _116
REMARK   43  A    between atoms: _119  and  _121
REMARK   44  A    between atoms: _121  and  _122
REMARK   45  A    between atoms: _121  and  _124
REMARK   46  A    between atoms: _124  and  _125
REMARK   47  A    between atoms: _125  and  _126
REMARK   48  A    between atoms: _129  and  _131
REMARK   49  A    between atoms: _131  and  _132
REMARK   50  A    between atoms: _134  and  _136
REMARK   51  A    between atoms: _136  and  _137
REMARK   52  A    between atoms: _136  and  _139
REMARK   53  A    between atoms: _139  and  _140
REMARK   54  A    between atoms: _150  and  _152
REMARK   55  A    between atoms: _152  and  _153
REMARK   56  A    between atoms: _152  and  _155
REMARK   57  A    between atoms: _155  and  _156
REMARK   58  A    between atoms: _166  and  _168
REMARK   59  A    between atoms: _168  and  _169
REMARK   60  A    between atoms: _168  and  _171
REMARK   61  A    between atoms: _171  and  _172
REMARK   62  A    between atoms: _178  and  _180
REMARK   63  A    between atoms: _180  and  _181
REMARK   64  A    between atoms: _180  and  _183
REMARK   65  A    between atoms: _183  and  _184
REMARK   66  A    between atoms: _190  and  _192
REMARK   67  A    between atoms: _192  and  _193
REMARK   68  A    between atoms: _192  and  _195
REMARK   69  A    between atoms: _195  and  _196
REMARK   70  A    between atoms: _201  and  _203
REMARK   71  A    between atoms: _203  and  _204
REMARK   72  A    between atoms: _203  and  _206
REMARK   73  A    between atoms: _206  and  _207
REMARK   74  A    between atoms: _212  and  _214
REMARK   75  A    between atoms: _214  and  _215
REMARK   76  A    between atoms: _214  and  _217
REMARK   77  A    between atoms: _217  and  _218
REMARK   78  A    between atoms: _218  and  _219
REMARK   79  A    between atoms: _222  and  _224
REMARK   80  A    between atoms: _224  and  _225
REMARK   81  A    between atoms: _224  and  _227
REMARK   82  A    between atoms: _227  and  _228
REMARK   83  A    between atoms: _231  and  _233
REMARK   84  A    between atoms: _233  and  _234
REMARK   85  A    between atoms: _233  and  _236
REMARK   86  A    between atoms: _236  and  _237
REMARK   87  A    between atoms: _239  and  _241
REMARK   88  A    between atoms: _241  and  _242
REMARK   89  A    between atoms: _241  and  _244
REMARK   90  A    between atoms: _244  and  _245
REMARK   91  A    between atoms: _245  and  _246
REMARK   92  A    between atoms: _246  and  _247
REMARK   93  A    between atoms: _247  and  _248
REMARK   94  A    between atoms: _252  and  _254
REMARK   95  A    between atoms: _254  and  _255
REMARK   96  A    between atoms: _254  and  _257
REMARK   97  A    between atoms: _257  and  _258
REMARK   98  A    between atoms: _260  and  _262
REMARK   99  A    between atoms: _262  and  _263
REMARK  100  A    between atoms: _265  and  _267
REMARK  101  A    between atoms: _267  and  _268
REMARK  102  A    between atoms: _267  and  _270
REMARK  103  A    between atoms: _270  and  _271
REMARK  104  A    between atoms: _276  and  _277
REMARK  105  A    between atoms: _279  and  _281
REMARK  106  A    between atoms: _281  and  _282
REMARK  107  A    between atoms: _281  and  _284
REMARK  108  A    between atoms: _287  and  _289
REMARK  109  A    between atoms: _289  and  _290
REMARK  110  A    between atoms: _292  and  _294
REMARK  111  A    between atoms: _294  and  _295
REMARK  112  A    between atoms: _294  and  _297
REMARK  113  A    between atoms: _297  and  _298
REMARK  114  A    between atoms: _303  and  _305
REMARK  115  A    between atoms: _305  and  _306
REMARK  116  A    between atoms: _309  and  _311
REMARK  117  A    between atoms: _311  and  _312
REMARK  118  A    between atoms: _311  and  _314
REMARK  119  A    between atoms: _314  and  _315
REMARK  120  A    between atoms: _320  and  _322
REMARK  121  A    between atoms: _322  and  _323
REMARK  122  A    between atoms: _322  and  _325
REMARK  123  A    between atoms: _325  and  _326
REMARK  124  A    between atoms: _326  and  _327
REMARK  125  A    between atoms: _327  and  _329
REMARK  126  A    between atoms: _329  and  CA_431
REMARK  127  A    between atoms: _330  and  _332
REMARK  128  A    between atoms: _332  and  _333
REMARK  129  A    between atoms: _332  and  _335
REMARK  130  A    between atoms: _335  and  _336
REMARK  131  A    between atoms: _336  and  _337
REMARK  132  A    between atoms: _337  and  _338
REMARK  133  A    between atoms: _338  and  CA_431
REMARK  134  A    between atoms: _340  and  _342
REMARK  135  A    between atoms: _342  and  _343
REMARK  136  A    between atoms: _342  and  _345
REMARK  137  A    between atoms: _345  and  _346
REMARK  138  A    between atoms: _348  and  _350
REMARK  139  A    between atoms: _350  and  _351
REMARK  140  A    between atoms: _354  and  _356
REMARK  141  A    between atoms: _356  and  _357
REMARK  142  A    between atoms: _359  and  _361
REMARK  143  A    between atoms: _361  and  _362
REMARK  144  A    between atoms: _361  and  _364
REMARK  145  A    between atoms: _364  and  _365
REMARK  146  A    between atoms: _368  and  _370
REMARK  147  A    between atoms: _370  and  _371
REMARK  148  A    between atoms: _370  and  _373
REMARK  149  A    between atoms: _373  and  _374
REMARK  150  A    between atoms: _374  and  _375
REMARK  151  A    between atoms: _378  and  _380
REMARK  152  A    between atoms: _380  and  _381
REMARK  153  A    between atoms: _380  and  _383
REMARK  154  A    between atoms: _383  and  _384
REMARK  155  A    between atoms: _389  and  _390
REMARK  156  A    between atoms: _392  and  _394
REMARK  157  A    between atoms: _394  and  _395
REMARK  158  A    between atoms: _394  and  _397
REMARK  159  A    between atoms: _397  and  _398
REMARK  160  A    between atoms: _404  and  _406
REMARK  161  A    between atoms: _406  and  _407
REMARK  162  A    between atoms: _406  and  _409
REMARK  163  A    between atoms: _409  and  _410
REMARK  164  A    between atoms: _413  and  _415
REMARK  165  A    between atoms: _415  and  _416
REMARK  166  A    between atoms: _415  and  _418
REMARK  167  A    between atoms: _418  and  _419
REMARK  168  A    between atoms: _422  and  _424
REMARK  169  A    between atoms: _424  and  _425
REMARK  170  A    between atoms: _424  and  _427
REMARK  171  A    between atoms: _427  and  _428
REMARK  172  A    between atoms: _428  and  _429
REMARK                            x       y       z     vdW  Elec       q    Type
REMARK                         _______ _______ _______ _____ _____    ______ ____
ROOT
ATOM      1  O   HOH     1      22.483  47.682  69.096  0.00  0.00    +0.000 OA
ENDROOT
TORSDOF 0
REMARK  Name = ../refined-set-2016/2jke/2jke_pocket.pdb
REMARK  172 active torsions:
REMARK  status: ('A' for Active; 'I' for Inactive)
REMARK    1  A    between atoms: _1  and  _3
REMARK    2  A    between atoms: _3  and  _4
REMARK    3  A    between atoms: _3  and  _6
REMARK    4  A    between atoms: _6  and  _7
REMARK    5  A    between atoms: _7  and  _8
REMARK    6  A    between atoms: _11  and  _13
REMARK    7  A    between atoms: _13  and  _14
REMARK    8  A    between atoms: _13  and  _16
REMARK    9  A    between atoms: _16  and  _17
REMARK   10  A    between atoms: _22  and  _24
REMARK   11  A    between atoms: _24  and  _25
REMARK   12  A    between atoms: _24  and  _27
REMARK   13  A    between atoms: _27  and  _28
REMARK   14  A    between atoms: _33  and  _34
REMARK   15  A    between atoms: _36  and  _38
REMARK   16  A    between atoms: _38  and  _39
REMARK   17  A    between atoms: _38  and  _41
REMARK   18  A    between atoms: _44  and  _46
REMARK   19  A    between atoms: _46  and  _47
REMARK   20  A    between atoms: _46  and  _49
REMARK   21  A    between atoms: _49  and  _50
REMARK   22  A    between atoms: _60  and  _62
REMARK   23  A    between atoms: _62  and  _63
REMARK   24  A    between atoms: _62  and  _65
REMARK   25  A    between atoms: _65  and  _66
REMARK   26  A    between atoms: _76  and  _78
REMARK   27  A    between atoms: _78  and  _79
REMARK   28  A    between atoms: _78  and  _81
REMARK   29  A    between atoms: _81  and  _82
REMARK   30  A    between atoms: _82  and  _83
REMARK   31  A    between atoms: _85  and  _87
REMARK   32  A    between atoms: _87  and  _88
REMARK   33  A    between atoms: _87  and  _90
REMARK   34  A    between atoms: _90  and  _91
REMARK   35  A    between atoms: _94  and  _96
REMARK   36  A    between atoms: _96  and  _97
REMARK   37  A    between atoms: _96  and  _99
REMARK   38  A    between atoms: _99  and  _100
REMARK   39  A    between atoms: _110  and  _112
REMARK   40  A    between atoms: _112  and  _113
REMARK   41  A    between atoms: _112  and  _115
REMARK   42  A    between atoms: _115  and  _116
REMARK   43  A    between atoms: _119  and  _121
REMARK   44  A    between atoms: _121  and  _122
REMARK   45  A    between atoms: _121  and  _124
REMARK   46  A    between atoms: _124  and  _125
REMARK   47  A    between atoms: _125  and  _126
REMARK   48  A    between atoms: _129  and  _131
REMARK   49  A    between atoms: _131  and  _132
REMARK   50  A    between atoms: _134  and  _136
REMARK   51  A    between atoms: _136  and  _137
REMARK   52  A    between atoms: _136  and  _139
REMARK   53  A    between atoms: _139  and  _140
REMARK   54  A    between atoms: _150  and  _152
REMARK   55  A    between atoms: _152  and  _153
REMARK   56  A    between atoms: _152  and  _155
REMARK   57  A    between atoms: _155  and  _156
REMARK   58  A    between atoms: _166  and  _168
REMARK   59  A    between atoms: _168  and  _169
REMARK   60  A    between atoms: _168  and  _171
REMARK   61  A    between atoms: _171  and  _172
REMARK   62  A    between atoms: _178  and  _180
REMARK   63  A    between atoms: _180  and  _181
REMARK   64  A    between atoms: _180  and  _183
REMARK   65  A    between atoms: _183  and  _184
REMARK   66  A    between atoms: _190  and  _192
REMARK   67  A    between atoms: _192  and  _193
REMARK   68  A    between atoms: _192  and  _195
REMARK   69  A    between atoms: _195  and  _196
REMARK   70  A    between atoms: _201  and  _203
REMARK   71  A    between atoms: _203  and  _204
REMARK   72  A    between atoms: _203  and  _206
REMARK   73  A    between atoms: _206  and  _207
REMARK   74  A    between atoms: _212  and  _214
REMARK   75  A    between atoms: _214  and  _215
REMARK   76  A    between atoms: _214  and  _217
REMARK   77  A    between atoms: _217  and  _218
REMARK   78  A    between atoms: _218  and  _219
REMARK   79  A    between atoms: _222  and  _224
REMARK   80  A    between atoms: _224  and  _225
REMARK   81  A    between atoms: _224  and  _227
REMARK   82  A    between atoms: _227  and  _228
REMARK   83  A    between atoms: _231  and  _233
REMARK   84  A    between atoms: _233  and  _234
REMARK   85  A    between atoms: _233  and  _236
REMARK   86  A    between atoms: _236  and  _237
REMARK   87  A    between atoms: _239  and  _241
REMARK   88  A    between atoms: _241  and  _242
REMARK   89  A    between atoms: _241  and  _244
REMARK   90  A    between atoms: _244  and  _245
REMARK   91  A    between atoms: _245  and  _246
REMARK   92  A    between atoms: _246  and  _247
REMARK   93  A    between atoms: _247  and  _248
REMARK   94  A    between atoms: _252  and  _254
REMARK   95  A    between atoms: _254  and  _255
REMARK   96  A    between atoms: _254  and  _257
REMARK   97  A    between atoms: _257  and  _258
REMARK   98  A    between atoms: _260  and  _262
REMARK   99  A    between atoms: _262  and  _263
REMARK  100  A    between atoms: _265  and  _267
REMARK  101  A    between atoms: _267  and  _268
REMARK  102  A    between atoms: _267  and  _270
REMARK  103  A    between atoms: _270  and  _271
REMARK  104  A    between atoms: _276  and  _277
REMARK  105  A    between atoms: _279  and  _281
REMARK  106  A    between atoms: _281  and  _282
REMARK  107  A    between atoms: _281  and  _284
REMARK  108  A    between atoms: _287  and  _289
REMARK  109  A    between atoms: _289  and  _290
REMARK  110  A    between atoms: _292  and  _294
REMARK  111  A    between atoms: _294  and  _295
REMARK  112  A    between atoms: _294  and  _297
REMARK  113  A    between atoms: _297  and  _298
REMARK  114  A    between atoms: _303  and  _305
REMARK  115  A    between atoms: _305  and  _306
REMARK  116  A    between atoms: _309  and  _311
REMARK  117  A    between atoms: _311  and  _312
REMARK  118  A    between atoms: _311  and  _314
REMARK  119  A    between atoms: _314  and  _315
REMARK  120  A    between atoms: _320  and  _322
REMARK  121  A    between atoms: _322  and  _323
REMARK  122  A    between atoms: _322  and  _325
REMARK  123  A    between atoms: _325  and  _326
REMARK  124  A    between atoms: _326  and  _327
REMARK  125  A    between atoms: _327  and  _329
REMARK  126  A    between atoms: _329  and  CA_431
REMARK  127  A    between atoms: _330  and  _332
REMARK  128  A    between atoms: _332  and  _333
REMARK  129  A    between atoms: _332  and  _335
REMARK  130  A    between atoms: _335  and  _336
REMARK  131  A    between atoms: _336  and  _337
REMARK  132  A    between atoms: _337  and  _338
REMARK  133  A    between atoms: _338  and  CA_431
REMARK  134  A    between atoms: _340  and  _342
REMARK  135  A    between atoms: _342  and  _343
REMARK  136  A    between atoms: _342  and  _345
REMARK  137  A    between atoms: _345  and  _346
REMARK  138  A    between atoms: _348  and  _350
REMARK  139  A    between atoms: _350  and  _351
REMARK  140  A    between atoms: _354  and  _356
REMARK  141  A    between atoms: _356  and  _357
REMARK  142  A    between atoms: _359  and  _361
REMARK  143  A    between atoms: _361  and  _362
REMARK  144  A    between atoms: _361  and  _364
REMARK  145  A    between atoms: _364  and  _365
REMARK  146  A    between atoms: _368  and  _370
REMARK  147  A    between atoms: _370  and  _371
REMARK  148  A    between atoms: _370  and  _373
REMARK  149  A    between atoms: _373  and  _374
REMARK  150  A    between atoms: _374  and  _375
REMARK  151  A    between atoms: _378  and  _380
REMARK  152  A    between atoms: _380  and  _381
REMARK  153  A    between atoms: _380  and  _383
REMARK  154  A    between atoms: _383  and  _384
REMARK  155  A    between atoms: _389  and  _390
REMARK  156  A    between atoms: _392  and  _394
REMARK  157  A    between atoms: _394  and  _395
REMARK  158  A    between atoms: _394  and  _397
REMARK  159  A    between atoms: _397  and  _398
REMARK  160  A    between atoms: _404  and  _406
REMARK  161  A    between atoms: _406  and  _407
REMARK  162  A    between atoms: _406  and  _409
REMARK  163  A    between atoms: _409  and  _410
REMARK  164  A    between atoms: _413  and  _415
REMARK  165  A    between atoms: _415  and  _416
REMARK  166  A    between atoms: _415  and  _418
REMARK  167  A    between atoms: _418  and  _419
REMARK  168  A    between atoms: _422  and  _424
REMARK  169  A    between atoms: _424  and  _425
REMARK  170  A    between atoms: _424  and  _427
REMARK  171  A    between atoms: _427  and  _428
REMARK  172  A    between atoms: _428  and  _429
REMARK                            x       y       z     vdW  Elec       q    Type
REMARK                         _______ _______ _______ _____ _____    ______ ____
ROOT
ATOM      1  O   HOH     1      26.931  35.347  63.932  0.00  0.00    +0.000 OA
ENDROOT
TORSDOF 0
REMARK  Name = ../refined-set-2016/2jke/2jke_pocket.pdb
REMARK  172 active torsions:
REMARK  status: ('A' for Active; 'I' for Inactive)
REMARK    1  A    between atoms: _1  and  _3
REMARK    2  A    between atoms: _3  and  _4
REMARK    3  A    between atoms: _3  and  _6
REMARK    4  A    between atoms: _6  and  _7
REMARK    5  A    between atoms: _7  and  _8
REMARK    6  A    between atoms: _11  and  _13
REMARK    7  A    between atoms: _13  and  _14
REMARK    8  A    between atoms: _13  and  _16
REMARK    9  A    between atoms: _16  and  _17
REMARK   10  A    between atoms: _22  and  _24
REMARK   11  A    between atoms: _24  and  _25
REMARK   12  A    between atoms: _24  and  _27
REMARK   13  A    between atoms: _27  and  _28
REMARK   14  A    between atoms: _33  and  _34
REMARK   15  A    between atoms: _36  and  _38
REMARK   16  A    between atoms: _38  and  _39
REMARK   17  A    between atoms: _38  and  _41
REMARK   18  A    between atoms: _44  and  _46
REMARK   19  A    between atoms: _46  and  _47
REMARK   20  A    between atoms: _46  and  _49
REMARK   21  A    between atoms: _49  and  _50
REMARK   22  A    between atoms: _60  and  _62
REMARK   23  A    between atoms: _62  and  _63
REMARK   24  A    between atoms: _62  and  _65
REMARK   25  A    between atoms: _65  and  _66
REMARK   26  A    between atoms: _76  and  _78
REMARK   27  A    between atoms: _78  and  _79
REMARK   28  A    between atoms: _78  and  _81
REMARK   29  A    between atoms: _81  and  _82
REMARK   30  A    between atoms: _82  and  _83
REMARK   31  A    between atoms: _85  and  _87
REMARK   32  A    between atoms: _87  and  _88
REMARK   33  A    between atoms: _87  and  _90
REMARK   34  A    between atoms: _90  and  _91
REMARK   35  A    between atoms: _94  and  _96
REMARK   36  A    between atoms: _96  and  _97
REMARK   37  A    between atoms: _96  and  _99
REMARK   38  A    between atoms: _99  and  _100
REMARK   39  A    between atoms: _110  and  _112
REMARK   40  A    between atoms: _112  and  _113
REMARK   41  A    between atoms: _112  and  _115
REMARK   42  A    between atoms: _115  and  _116
REMARK   43  A    between atoms: _119  and  _121
REMARK   44  A    between atoms: _121  and  _122
REMARK   45  A    between atoms: _121  and  _124
REMARK   46  A    between atoms: _124  and  _125
REMARK   47  A    between atoms: _125  and  _126
REMARK   48  A    between atoms: _129  and  _131
REMARK   49  A    between atoms: _131  and  _132
REMARK   50  A    between atoms: _134  and  _136
REMARK   51  A    between atoms: _136  and  _137
REMARK   52  A    between atoms: _136  and  _139
REMARK   53  A    between atoms: _139  and  _140
REMARK   54  A    between atoms: _150  and  _152
REMARK   55  A    between atoms: _152  and  _153
REMARK   56  A    between atoms: _152  and  _155
REMARK   57  A    between atoms: _155  and  _156
REMARK   58  A    between atoms: _166  and  _168
REMARK   59  A    between atoms: _168  and  _169
REMARK   60  A    between atoms: _168  and  _171
REMARK   61  A    between atoms: _171  and  _172
REMARK   62  A    between atoms: _178  and  _180
REMARK   63  A    between atoms: _180  and  _181
REMARK   64  A    between atoms: _180  and  _183
REMARK   65  A    between atoms: _183  and  _184
REMARK   66  A    between atoms: _190  and  _192
REMARK   67  A    between atoms: _192  and  _193
REMARK   68  A    between atoms: _192  and  _195
REMARK   69  A    between atoms: _195  and  _196
REMARK   70  A    between atoms: _201  and  _203
REMARK   71  A    between atoms: _203  and  _204
REMARK   72  A    between atoms: _203  and  _206
REMARK   73  A    between atoms: _206  and  _207
REMARK   74  A    between atoms: _212  and  _214
REMARK   75  A    between atoms: _214  and  _215
REMARK   76  A    between atoms: _214  and  _217
REMARK   77  A    between atoms: _217  and  _218
REMARK   78  A    between atoms: _218  and  _219
REMARK   79  A    between atoms: _222  and  _224
REMARK   80  A    between atoms: _224  and  _225
REMARK   81  A    between atoms: _224  and  _227
REMARK   82  A    between atoms: _227  and  _228
REMARK   83  A    between atoms: _231  and  _233
REMARK   84  A    between atoms: _233  and  _234
REMARK   85  A    between atoms: _233  and  _236
REMARK   86  A    between atoms: _236  and  _237
REMARK   87  A    between atoms: _239  and  _241
REMARK   88  A    between atoms: _241  and  _242
REMARK   89  A    between atoms: _241  and  _244
REMARK   90  A    between atoms: _244  and  _245
REMARK   91  A    between atoms: _245  and  _246
REMARK   92  A    between atoms: _246  and  _247
REMARK   93  A    between atoms: _247  and  _248
REMARK   94  A    between atoms: _252  and  _254
REMARK   95  A    between atoms: _254  and  _255
REMARK   96  A    between atoms: _254  and  _257
REMARK   97  A    between atoms: _257  and  _258
REMARK   98  A    between atoms: _260  and  _262
REMARK   99  A    between atoms: _262  and  _263
REMARK  100  A    between atoms: _265  and  _267
REMARK  101  A    between atoms: _267  and  _268
REMARK  102  A    between atoms: _267  and  _270
REMARK  103  A    between atoms: _270  and  _271
REMARK  104  A    between atoms: _276  and  _277
REMARK  105  A    between atoms: _279  and  _281
REMARK  106  A    between atoms: _281  and  _282
REMARK  107  A    between atoms: _281  and  _284
REMARK  108  A    between atoms: _287  and  _289
REMARK  109  A    between atoms: _289  and  _290
REMARK  110  A    between atoms: _292  and  _294
REMARK  111  A    between atoms: _294  and  _295
REMARK  112  A    between atoms: _294  and  _297
REMARK  113  A    between atoms: _297  and  _298
REMARK  114  A    between atoms: _303  and  _305
REMARK  115  A    between atoms: _305  and  _306
REMARK  116  A    between atoms: _309  and  _311
REMARK  117  A    between atoms: _311  and  _312
REMARK  118  A    between atoms: _311  and  _314
REMARK  119  A    between atoms: _314  and  _315
REMARK  120  A    between atoms: _320  and  _322
REMARK  121  A    between atoms: _322  and  _323
REMARK  122  A    between atoms: _322  and  _325
REMARK  123  A    between atoms: _325  and  _326
REMARK  124  A    between atoms: _326  and  _327
REMARK  125  A    between atoms: _327  and  _329
REMARK  126  A    between atoms: _329  and  CA_431
REMARK  127  A    between atoms: _330  and  _332
REMARK  128  A    between atoms: _332  and  _333
REMARK  129  A    between atoms: _332  and  _335
REMARK  130  A    between atoms: _335  and  _336
REMARK  131  A    between atoms: _336  and  _337
REMARK  132  A    between atoms: _337  and  _338
REMARK  133  A    between atoms: _338  and  CA_431
REMARK  134  A    between atoms: _340  and  _342
REMARK  135  A    between atoms: _342  and  _343
REMARK  136  A    between atoms: _342  and  _345
REMARK  137  A    between atoms: _345  and  _346
REMARK  138  A    between atoms: _348  and  _350
REMARK  139  A    between atoms: _350  and  _351
REMARK  140  A    between atoms: _354  and  _356
REMARK  141  A    between atoms: _356  and  _357
REMARK  142  A    between atoms: _359  and  _361
REMARK  143  A    between atoms: _361  and  _362
REMARK  144  A    between atoms: _361  and  _364
REMARK  145  A    between atoms: _364  and  _365
REMARK  146  A    between atoms: _368  and  _370
REMARK  147  A    between atoms: _370  and  _371
REMARK  148  A    between atoms: _370  and  _373
REMARK  149  A    between atoms: _373  and  _374
REMARK  150  A    between atoms: _374  and  _375
REMARK  151  A    between atoms: _378  and  _380
REMARK  152  A    between atoms: _380  and  _381
REMARK  153  A    between atoms: _380  and  _383
REMARK  154  A    between atoms: _383  and  _384
REMARK  155  A    between atoms: _389  and  _390
REMARK  156  A    between atoms: _392  and  _394
REMARK  157  A    between atoms: _394  and  _395
REMARK  158  A    between atoms: _394  and  _397
REMARK  159  A    between atoms: _397  and  _398
REMARK  160  A    between atoms: _404  and  _406
REMARK  161  A    between atoms: _406  and  _407
REMARK  162  A    between atoms: _406  and  _409
REMARK  163  A    between atoms: _409  and  _410
REMARK  164  A    between atoms: _413  and  _415
REMARK  165  A    between atoms: _415  and  _416
REMARK  166  A    between atoms: _415  and  _418
REMARK  167  A    between atoms: _418  and  _419
REMARK  168  A    between atoms: _422  and  _424
REMARK  169  A    between atoms: _424  and  _425
REMARK  170  A    between atoms: _424  and  _427
REMARK  171  A    between atoms: _427  and  _428
REMARK  172  A    between atoms: _428  and  _429
REMARK                            x       y       z     vdW  Elec       q    Type
REMARK                         _______ _______ _______ _____ _____    ______ ____
ROOT
ATOM      1  O   HOH     1      24.309  36.006  62.830  0.00  0.00    +0.000 OA
ENDROOT
TORSDOF 0
REMARK  Name = ../refined-set-2016/2jke/2jke_pocket.pdb
REMARK  172 active torsions:
REMARK  status: ('A' for Active; 'I' for Inactive)
REMARK    1  A    between atoms: _1  and  _3
REMARK    2  A    between atoms: _3  and  _4
REMARK    3  A    between atoms: _3  and  _6
REMARK    4  A    between atoms: _6  and  _7
REMARK    5  A    between atoms: _7  and  _8
REMARK    6  A    between atoms: _11  and  _13
REMARK    7  A    between atoms: _13  and  _14
REMARK    8  A    between atoms: _13  and  _16
REMARK    9  A    between atoms: _16  and  _17
REMARK   10  A    between atoms: _22  and  _24
REMARK   11  A    between atoms: _24  and  _25
REMARK   12  A    between atoms: _24  and  _27
REMARK   13  A    between atoms: _27  and  _28
REMARK   14  A    between atoms: _33  and  _34
REMARK   15  A    between atoms: _36  and  _38
REMARK   16  A    between atoms: _38  and  _39
REMARK   17  A    between atoms: _38  and  _41
REMARK   18  A    between atoms: _44  and  _46
REMARK   19  A    between atoms: _46  and  _47
REMARK   20  A    between atoms: _46  and  _49
REMARK   21  A    between atoms: _49  and  _50
REMARK   22  A    between atoms: _60  and  _62
REMARK   23  A    between atoms: _62  and  _63
REMARK   24  A    between atoms: _62  and  _65
REMARK   25  A    between atoms: _65  and  _66
REMARK   26  A    between atoms: _76  and  _78
REMARK   27  A    between atoms: _78  and  _79
REMARK   28  A    between atoms: _78  and  _81
REMARK   29  A    between atoms: _81  and  _82
REMARK   30  A    between atoms: _82  and  _83
REMARK   31  A    between atoms: _85  and  _87
REMARK   32  A    between atoms: _87  and  _88
REMARK   33  A    between atoms: _87  and  _90
REMARK   34  A    between atoms: _90  and  _91
REMARK   35  A    between atoms: _94  and  _96
REMARK   36  A    between atoms: _96  and  _97
REMARK   37  A    between atoms: _96  and  _99
REMARK   38  A    between atoms: _99  and  _100
REMARK   39  A    between atoms: _110  and  _112
REMARK   40  A    between atoms: _112  and  _113
REMARK   41  A    between atoms: _112  and  _115
REMARK   42  A    between atoms: _115  and  _116
REMARK   43  A    between atoms: _119  and  _121
REMARK   44  A    between atoms: _121  and  _122
REMARK   45  A    between atoms: _121  and  _124
REMARK   46  A    between atoms: _124  and  _125
REMARK   47  A    between atoms: _125  and  _126
REMARK   48  A    between atoms: _129  and  _131
REMARK   49  A    between atoms: _131  and  _132
REMARK   50  A    between atoms: _134  and  _136
REMARK   51  A    between atoms: _136  and  _137
REMARK   52  A    between atoms: _136  and  _139
REMARK   53  A    between atoms: _139  and  _140
REMARK   54  A    between atoms: _150  and  _152
REMARK   55  A    between atoms: _152  and  _153
REMARK   56  A    between atoms: _152  and  _155
REMARK   57  A    between atoms: _155  and  _156
REMARK   58  A    between atoms: _166  and  _168
REMARK   59  A    between atoms: _168  and  _169
REMARK   60  A    between atoms: _168  and  _171
REMARK   61  A    between atoms: _171  and  _172
REMARK   62  A    between atoms: _178  and  _180
REMARK   63  A    between atoms: _180  and  _181
REMARK   64  A    between atoms: _180  and  _183
REMARK   65  A    between atoms: _183  and  _184
REMARK   66  A    between atoms: _190  and  _192
REMARK   67  A    between atoms: _192  and  _193
REMARK   68  A    between atoms: _192  and  _195
REMARK   69  A    between atoms: _195  and  _196
REMARK   70  A    between atoms: _201  and  _203
REMARK   71  A    between atoms: _203  and  _204
REMARK   72  A    between atoms: _203  and  _206
REMARK   73  A    between atoms: _206  and  _207
REMARK   74  A    between atoms: _212  and  _214
REMARK   75  A    between atoms: _214  and  _215
REMARK   76  A    between atoms: _214  and  _217
REMARK   77  A    between atoms: _217  and  _218
REMARK   78  A    between atoms: _218  and  _219
REMARK   79  A    between atoms: _222  and  _224
REMARK   80  A    between atoms: _224  and  _225
REMARK   81  A    between atoms: _224  and  _227
REMARK   82  A    between atoms: _227  and  _228
REMARK   83  A    between atoms: _231  and  _233
REMARK   84  A    between atoms: _233  and  _234
REMARK   85  A    between atoms: _233  and  _236
REMARK   86  A    between atoms: _236  and  _237
REMARK   87  A    between atoms: _239  and  _241
REMARK   88  A    between atoms: _241  and  _242
REMARK   89  A    between atoms: _241  and  _244
REMARK   90  A    between atoms: _244  and  _245
REMARK   91  A    between atoms: _245  and  _246
REMARK   92  A    between atoms: _246  and  _247
REMARK   93  A    between atoms: _247  and  _248
REMARK   94  A    between atoms: _252  and  _254
REMARK   95  A    between atoms: _254  and  _255
REMARK   96  A    between atoms: _254  and  _257
REMARK   97  A    between atoms: _257  and  _258
REMARK   98  A    between atoms: _260  and  _262
REMARK   99  A    between atoms: _262  and  _263
REMARK  100  A    between atoms: _265  and  _267
REMARK  101  A    between atoms: _267  and  _268
REMARK  102  A    between atoms: _267  and  _270
REMARK  103  A    between atoms: _270  and  _271
REMARK  104  A    between atoms: _276  and  _277
REMARK  105  A    between atoms: _279  and  _281
REMARK  106  A    between atoms: _281  and  _282
REMARK  107  A    between atoms: _281  and  _284
REMARK  108  A    between atoms: _287  and  _289
REMARK  109  A    between atoms: _289  and  _290
REMARK  110  A    between atoms: _292  and  _294
REMARK  111  A    between atoms: _294  and  _295
REMARK  112  A    between atoms: _294  and  _297
REMARK  113  A    between atoms: _297  and  _298
REMARK  114  A    between atoms: _303  and  _305
REMARK  115  A    between atoms: _305  and  _306
REMARK  116  A    between atoms: _309  and  _311
REMARK  117  A    between atoms: _311  and  _312
REMARK  118  A    between atoms: _311  and  _314
REMARK  119  A    between atoms: _314  and  _315
REMARK  120  A    between atoms: _320  and  _322
REMARK  121  A    between atoms: _322  and  _323
REMARK  122  A    between atoms: _322  and  _325
REMARK  123  A    between atoms: _325  and  _326
REMARK  124  A    between atoms: _326  and  _327
REMARK  125  A    between atoms: _327  and  _329
REMARK  126  A    between atoms: _329  and  CA_431
REMARK  127  A    between atoms: _330  and  _332
REMARK  128  A    between atoms: _332  and  _333
REMARK  129  A    between atoms: _332  and  _335
REMARK  130  A    between atoms: _335  and  _336
REMARK  131  A    between atoms: _336  and  _337
REMARK  132  A    between atoms: _337  and  _338
REMARK  133  A    between atoms: _338  and  CA_431
REMARK  134  A    between atoms: _340  and  _342
REMARK  135  A    between atoms: _342  and  _343
REMARK  136  A    between atoms: _342  and  _345
REMARK  137  A    between atoms: _345  and  _346
REMARK  138  A    between atoms: _348  and  _350
REMARK  139  A    between atoms: _350  and  _351
REMARK  140  A    between atoms: _354  and  _356
REMARK  141  A    between atoms: _356  and  _357
REMARK  142  A    between atoms: _359  and  _361
REMARK  143  A    between atoms: _361  and  _362
REMARK  144  A    between atoms: _361  and  _364
REMARK  145  A    between atoms: _364  and  _365
REMARK  146  A    between atoms: _368  and  _370
REMARK  147  A    between atoms: _370  and  _371
REMARK  148  A    between atoms: _370  and  _373
REMARK  149  A    between atoms: _373  and  _374
REMARK  150  A    between atoms: _374  and  _375
REMARK  151  A    between atoms: _378  and  _380
REMARK  152  A    between atoms: _380  and  _381
REMARK  153  A    between atoms: _380  and  _383
REMARK  154  A    between atoms: _383  and  _384
REMARK  155  A    between atoms: _389  and  _390
REMARK  156  A    between atoms: _392  and  _394
REMARK  157  A    between atoms: _394  and  _395
REMARK  158  A    between atoms: _394  and  _397
REMARK  159  A    between atoms: _397  and  _398
REMARK  160  A    between atoms: _404  and  _406
REMARK  161  A    between atoms: _406  and  _407
REMARK  162  A    between atoms: _406  and  _409
REMARK  163  A    between atoms: _409  and  _410
REMARK  164  A    between atoms: _413  and  _415
REMARK  165  A    between atoms: _415  and  _416
REMARK  166  A    between atoms: _415  and  _418
REMARK  167  A    between atoms: _418  and  _419
REMARK  168  A    between atoms: _422  and  _424
REMARK  169  A    between atoms: _424  and  _425
REMARK  170  A    between atoms: _424  and  _427
REMARK  171  A    between atoms: _427  and  _428
REMARK  172  A    between atoms: _428  and  _429
REMARK                            x       y       z     vdW  Elec       q    Type
REMARK                         _______ _______ _______ _____ _____    ______ ____
ROOT
ATOM      1  O   HOH     1      21.652  42.542  67.015  0.00  0.00    +0.000 OA
ENDROOT
TORSDOF 0
REMARK  Name = ../refined-set-2016/2jke/2jke_pocket.pdb
REMARK  172 active torsions:
REMARK  status: ('A' for Active; 'I' for Inactive)
REMARK    1  A    between atoms: _1  and  _3
REMARK    2  A    between atoms: _3  and  _4
REMARK    3  A    between atoms: _3  and  _6
REMARK    4  A    between atoms: _6  and  _7
REMARK    5  A    between atoms: _7  and  _8
REMARK    6  A    between atoms: _11  and  _13
REMARK    7  A    between atoms: _13  and  _14
REMARK    8  A    between atoms: _13  and  _16
REMARK    9  A    between atoms: _16  and  _17
REMARK   10  A    between atoms: _22  and  _24
REMARK   11  A    between atoms: _24  and  _25
REMARK   12  A    between atoms: _24  and  _27
REMARK   13  A    between atoms: _27  and  _28
REMARK   14  A    between atoms: _33  and  _34
REMARK   15  A    between atoms: _36  and  _38
REMARK   16  A    between atoms: _38  and  _39
REMARK   17  A    between atoms: _38  and  _41
REMARK   18  A    between atoms: _44  and  _46
REMARK   19  A    between atoms: _46  and  _47
REMARK   20  A    between atoms: _46  and  _49
REMARK   21  A    between atoms: _49  and  _50
REMARK   22  A    between atoms: _60  and  _62
REMARK   23  A    between atoms: _62  and  _63
REMARK   24  A    between atoms: _62  and  _65
REMARK   25  A    between atoms: _65  and  _66
REMARK   26  A    between atoms: _76  and  _78
REMARK   27  A    between atoms: _78  and  _79
REMARK   28  A    between atoms: _78  and  _81
REMARK   29  A    between atoms: _81  and  _82
REMARK   30  A    between atoms: _82  and  _83
REMARK   31  A    between atoms: _85  and  _87
REMARK   32  A    between atoms: _87  and  _88
REMARK   33  A    between atoms: _87  and  _90
REMARK   34  A    between atoms: _90  and  _91
REMARK   35  A    between atoms: _94  and  _96
REMARK   36  A    between atoms: _96  and  _97
REMARK   37  A    between atoms: _96  and  _99
REMARK   38  A    between atoms: _99  and  _100
REMARK   39  A    between atoms: _110  and  _112
REMARK   40  A    between atoms: _112  and  _113
REMARK   41  A    between atoms: _112  and  _115
REMARK   42  A    between atoms: _115  and  _116
REMARK   43  A    between atoms: _119  and  _121
REMARK   44  A    between atoms: _121  and  _122
REMARK   45  A    between atoms: _121  and  _124
REMARK   46  A    between atoms: _124  and  _125
REMARK   47  A    between atoms: _125  and  _126
REMARK   48  A    between atoms: _129  and  _131
REMARK   49  A    between atoms: _131  and  _132
REMARK   50  A    between atoms: _134  and  _136
REMARK   51  A    between atoms: _136  and  _137
REMARK   52  A    between atoms: _136  and  _139
REMARK   53  A    between atoms: _139  and  _140
REMARK   54  A    between atoms: _150  and  _152
REMARK   55  A    between atoms: _152  and  _153
REMARK   56  A    between atoms: _152  and  _155
REMARK   57  A    between atoms: _155  and  _156
REMARK   58  A    between atoms: _166  and  _168
REMARK   59  A    between atoms: _168  and  _169
REMARK   60  A    between atoms: _168  and  _171
REMARK   61  A    between atoms: _171  and  _172
REMARK   62  A    between atoms: _178  and  _180
REMARK   63  A    between atoms: _180  and  _181
REMARK   64  A    between atoms: _180  and  _183
REMARK   65  A    between atoms: _183  and  _184
REMARK   66  A    between atoms: _190  and  _192
REMARK   67  A    between atoms: _192  and  _193
REMARK   68  A    between atoms: _192  and  _195
REMARK   69  A    between atoms: _195  and  _196
REMARK   70  A    between atoms: _201  and  _203
REMARK   71  A    between atoms: _203  and  _204
REMARK   72  A    between atoms: _203  and  _206
REMARK   73  A    between atoms: _206  and  _207
REMARK   74  A    between atoms: _212  and  _214
REMARK   75  A    between atoms: _214  and  _215
REMARK   76  A    between atoms: _214  and  _217
REMARK   77  A    between atoms: _217  and  _218
REMARK   78  A    between atoms: _218  and  _219
REMARK   79  A    between atoms: _222  and  _224
REMARK   80  A    between atoms: _224  and  _225
REMARK   81  A    between atoms: _224  and  _227
REMARK   82  A    between atoms: _227  and  _228
REMARK   83  A    between atoms: _231  and  _233
REMARK   84  A    between atoms: _233  and  _234
REMARK   85  A    between atoms: _233  and  _236
REMARK   86  A    between atoms: _236  and  _237
REMARK   87  A    between atoms: _239  and  _241
REMARK   88  A    between atoms: _241  and  _242
REMARK   89  A    between atoms: _241  and  _244
REMARK   90  A    between atoms: _244  and  _245
REMARK   91  A    between atoms: _245  and  _246
REMARK   92  A    between atoms: _246  and  _247
REMARK   93  A    between atoms: _247  and  _248
REMARK   94  A    between atoms: _252  and  _254
REMARK   95  A    between atoms: _254  and  _255
REMARK   96  A    between atoms: _254  and  _257
REMARK   97  A    between atoms: _257  and  _258
REMARK   98  A    between atoms: _260  and  _262
REMARK   99  A    between atoms: _262  and  _263
REMARK  100  A    between atoms: _265  and  _267
REMARK  101  A    between atoms: _267  and  _268
REMARK  102  A    between atoms: _267  and  _270
REMARK  103  A    between atoms: _270  and  _271
REMARK  104  A    between atoms: _276  and  _277
REMARK  105  A    between atoms: _279  and  _281
REMARK  106  A    between atoms: _281  and  _282
REMARK  107  A    between atoms: _281  and  _284
REMARK  108  A    between atoms: _287  and  _289
REMARK  109  A    between atoms: _289  and  _290
REMARK  110  A    between atoms: _292  and  _294
REMARK  111  A    between atoms: _294  and  _295
REMARK  112  A    between atoms: _294  and  _297
REMARK  113  A    between atoms: _297  and  _298
REMARK  114  A    between atoms: _303  and  _305
REMARK  115  A    between atoms: _305  and  _306
REMARK  116  A    between atoms: _309  and  _311
REMARK  117  A    between atoms: _311  and  _312
REMARK  118  A    between atoms: _311  and  _314
REMARK  119  A    between atoms: _314  and  _315
REMARK  120  A    between atoms: _320  and  _322
REMARK  121  A    between atoms: _322  and  _323
REMARK  122  A    between atoms: _322  and  _325
REMARK  123  A    between atoms: _325  and  _326
REMARK  124  A    between atoms: _326  and  _327
REMARK  125  A    between atoms: _327  and  _329
REMARK  126  A    between atoms: _329  and  CA_431
REMARK  127  A    between atoms: _330  and  _332
REMARK  128  A    between atoms: _332  and  _333
REMARK  129  A    between atoms: _332  and  _335
REMARK  130  A    between atoms: _335  and  _336
REMARK  131  A    between atoms: _336  and  _337
REMARK  132  A    between atoms: _337  and  _338
REMARK  133  A    between atoms: _338  and  CA_431
REMARK  134  A    between atoms: _340  and  _342
REMARK  135  A    between atoms: _342  and  _343
REMARK  136  A    between atoms: _342  and  _345
REMARK  137  A    between atoms: _345  and  _346
REMARK  138  A    between atoms: _348  and  _350
REMARK  139  A    between atoms: _350  and  _351
REMARK  140  A    between atoms: _354  and  _356
REMARK  141  A    between atoms: _356  and  _357
REMARK  142  A    between atoms: _359  and  _361
REMARK  143  A    between atoms: _361  and  _362
REMARK  144  A    between atoms: _361  and  _364
REMARK  145  A    between atoms: _364  and  _365
REMARK  146  A    between atoms: _368  and  _370
REMARK  147  A    between atoms: _370  and  _371
REMARK  148  A    between atoms: _370  and  _373
REMARK  149  A    between atoms: _373  and  _374
REMARK  150  A    between atoms: _374  and  _375
REMARK  151  A    between atoms: _378  and  _380
REMARK  152  A    between atoms: _380  and  _381
REMARK  153  A    between atoms: _380  and  _383
REMARK  154  A    between atoms: _383  and  _384
REMARK  155  A    between atoms: _389  and  _390
REMARK  156  A    between atoms: _392  and  _394
REMARK  157  A    between atoms: _394  and  _395
REMARK  158  A    between atoms: _394  and  _397
REMARK  159  A    between atoms: _397  and  _398
REMARK  160  A    between atoms: _404  and  _406
REMARK  161  A    between atoms: _406  and  _407
REMARK  162  A    between atoms: _406  and  _409
REMARK  163  A    between atoms: _409  and  _410
REMARK  164  A    between atoms: _413  and  _415
REMARK  165  A    between atoms: _415  and  _416
REMARK  166  A    between atoms: _415  and  _418
REMARK  167  A    between atoms: _418  and  _419
REMARK  168  A    between atoms: _422  and  _424
REMARK  169  A    between atoms: _424  and  _425
REMARK  170  A    between atoms: _424  and  _427
REMARK  171  A    between atoms: _427  and  _428
REMARK  172  A    between atoms: _428  and  _429
REMARK                            x       y       z     vdW  Elec       q    Type
REMARK                         _______ _______ _______ _____ _____    ______ ____
ROOT
ATOM      1  O   HOH     1      24.122  36.963  60.696  0.00  0.00    +0.000 OA
ENDROOT
TORSDOF 0
REMARK  Name = ../refined-set-2016/2jke/2jke_pocket.pdb
REMARK  172 active torsions:
REMARK  status: ('A' for Active; 'I' for Inactive)
REMARK    1  A    between atoms: _1  and  _3
REMARK    2  A    between atoms: _3  and  _4
REMARK    3  A    between atoms: _3  and  _6
REMARK    4  A    between atoms: _6  and  _7
REMARK    5  A    between atoms: _7  and  _8
REMARK    6  A    between atoms: _11  and  _13
REMARK    7  A    between atoms: _13  and  _14
REMARK    8  A    between atoms: _13  and  _16
REMARK    9  A    between atoms: _16  and  _17
REMARK   10  A    between atoms: _22  and  _24
REMARK   11  A    between atoms: _24  and  _25
REMARK   12  A    between atoms: _24  and  _27
REMARK   13  A    between atoms: _27  and  _28
REMARK   14  A    between atoms: _33  and  _34
REMARK   15  A    between atoms: _36  and  _38
REMARK   16  A    between atoms: _38  and  _39
REMARK   17  A    between atoms: _38  and  _41
REMARK   18  A    between atoms: _44  and  _46
REMARK   19  A    between atoms: _46  and  _47
REMARK   20  A    between atoms: _46  and  _49
REMARK   21  A    between atoms: _49  and  _50
REMARK   22  A    between atoms: _60  and  _62
REMARK   23  A    between atoms: _62  and  _63
REMARK   24  A    between atoms: _62  and  _65
REMARK   25  A    between atoms: _65  and  _66
REMARK   26  A    between atoms: _76  and  _78
REMARK   27  A    between atoms: _78  and  _79
REMARK   28  A    between atoms: _78  and  _81
REMARK   29  A    between atoms: _81  and  _82
REMARK   30  A    between atoms: _82  and  _83
REMARK   31  A    between atoms: _85  and  _87
REMARK   32  A    between atoms: _87  and  _88
REMARK   33  A    between atoms: _87  and  _90
REMARK   34  A    between atoms: _90  and  _91
REMARK   35  A    between atoms: _94  and  _96
REMARK   36  A    between atoms: _96  and  _97
REMARK   37  A    between atoms: _96  and  _99
REMARK   38  A    between atoms: _99  and  _100
REMARK   39  A    between atoms: _110  and  _112
REMARK   40  A    between atoms: _112  and  _113
REMARK   41  A    between atoms: _112  and  _115
REMARK   42  A    between atoms: _115  and  _116
REMARK   43  A    between atoms: _119  and  _121
REMARK   44  A    between atoms: _121  and  _122
REMARK   45  A    between atoms: _121  and  _124
REMARK   46  A    between atoms: _124  and  _125
REMARK   47  A    between atoms: _125  and  _126
REMARK   48  A    between atoms: _129  and  _131
REMARK   49  A    between atoms: _131  and  _132
REMARK   50  A    between atoms: _134  and  _136
REMARK   51  A    between atoms: _136  and  _137
REMARK   52  A    between atoms: _136  and  _139
REMARK   53  A    between atoms: _139  and  _140
REMARK   54  A    between atoms: _150  and  _152
REMARK   55  A    between atoms: _152  and  _153
REMARK   56  A    between atoms: _152  and  _155
REMARK   57  A    between atoms: _155  and  _156
REMARK   58  A    between atoms: _166  and  _168
REMARK   59  A    between atoms: _168  and  _169
REMARK   60  A    between atoms: _168  and  _171
REMARK   61  A    between atoms: _171  and  _172
REMARK   62  A    between atoms: _178  and  _180
REMARK   63  A    between atoms: _180  and  _181
REMARK   64  A    between atoms: _180  and  _183
REMARK   65  A    between atoms: _183  and  _184
REMARK   66  A    between atoms: _190  and  _192
REMARK   67  A    between atoms: _192  and  _193
REMARK   68  A    between atoms: _192  and  _195
REMARK   69  A    between atoms: _195  and  _196
REMARK   70  A    between atoms: _201  and  _203
REMARK   71  A    between atoms: _203  and  _204
REMARK   72  A    between atoms: _203  and  _206
REMARK   73  A    between atoms: _206  and  _207
REMARK   74  A    between atoms: _212  and  _214
REMARK   75  A    between atoms: _214  and  _215
REMARK   76  A    between atoms: _214  and  _217
REMARK   77  A    between atoms: _217  and  _218
REMARK   78  A    between atoms: _218  and  _219
REMARK   79  A    between atoms: _222  and  _224
REMARK   80  A    between atoms: _224  and  _225
REMARK   81  A    between atoms: _224  and  _227
REMARK   82  A    between atoms: _227  and  _228
REMARK   83  A    between atoms: _231  and  _233
REMARK   84  A    between atoms: _233  and  _234
REMARK   85  A    between atoms: _233  and  _236
REMARK   86  A    between atoms: _236  and  _237
REMARK   87  A    between atoms: _239  and  _241
REMARK   88  A    between atoms: _241  and  _242
REMARK   89  A    between atoms: _241  and  _244
REMARK   90  A    between atoms: _244  and  _245
REMARK   91  A    between atoms: _245  and  _246
REMARK   92  A    between atoms: _246  and  _247
REMARK   93  A    between atoms: _247  and  _248
REMARK   94  A    between atoms: _252  and  _254
REMARK   95  A    between atoms: _254  and  _255
REMARK   96  A    between atoms: _254  and  _257
REMARK   97  A    between atoms: _257  and  _258
REMARK   98  A    between atoms: _260  and  _262
REMARK   99  A    between atoms: _262  and  _263
REMARK  100  A    between atoms: _265  and  _267
REMARK  101  A    between atoms: _267  and  _268
REMARK  102  A    between atoms: _267  and  _270
REMARK  103  A    between atoms: _270  and  _271
REMARK  104  A    between atoms: _276  and  _277
REMARK  105  A    between atoms: _279  and  _281
REMARK  106  A    between atoms: _281  and  _282
REMARK  107  A    between atoms: _281  and  _284
REMARK  108  A    between atoms: _287  and  _289
REMARK  109  A    between atoms: _289  and  _290
REMARK  110  A    between atoms: _292  and  _294
REMARK  111  A    between atoms: _294  and  _295
REMARK  112  A    between atoms: _294  and  _297
REMARK  113  A    between atoms: _297  and  _298
REMARK  114  A    between atoms: _303  and  _305
REMARK  115  A    between atoms: _305  and  _306
REMARK  116  A    between atoms: _309  and  _311
REMARK  117  A    between atoms: _311  and  _312
REMARK  118  A    between atoms: _311  and  _314
REMARK  119  A    between atoms: _314  and  _315
REMARK  120  A    between atoms: _320  and  _322
REMARK  121  A    between atoms: _322  and  _323
REMARK  122  A    between atoms: _322  and  _325
REMARK  123  A    between atoms: _325  and  _326
REMARK  124  A    between atoms: _326  and  _327
REMARK  125  A    between atoms: _327  and  _329
REMARK  126  A    between atoms: _329  and  CA_431
REMARK  127  A    between atoms: _330  and  _332
REMARK  128  A    between atoms: _332  and  _333
REMARK  129  A    between atoms: _332  and  _335
REMARK  130  A    between atoms: _335  and  _336
REMARK  131  A    between atoms: _336  and  _337
REMARK  132  A    between atoms: _337  and  _338
REMARK  133  A    between atoms: _338  and  CA_431
REMARK  134  A    between atoms: _340  and  _342
REMARK  135  A    between atoms: _342  and  _343
REMARK  136  A    between atoms: _342  and  _345
REMARK  137  A    between atoms: _345  and  _346
REMARK  138  A    between atoms: _348  and  _350
REMARK  139  A    between atoms: _350  and  _351
REMARK  140  A    between atoms: _354  and  _356
REMARK  141  A    between atoms: _356  and  _357
REMARK  142  A    between atoms: _359  and  _361
REMARK  143  A    between atoms: _361  and  _362
REMARK  144  A    between atoms: _361  and  _364
REMARK  145  A    between atoms: _364  and  _365
REMARK  146  A    between atoms: _368  and  _370
REMARK  147  A    between atoms: _370  and  _371
REMARK  148  A    between atoms: _370  and  _373
REMARK  149  A    between atoms: _373  and  _374
REMARK  150  A    between atoms: _374  and  _375
REMARK  151  A    between atoms: _378  and  _380
REMARK  152  A    between atoms: _380  and  _381
REMARK  153  A    between atoms: _380  and  _383
REMARK  154  A    between atoms: _383  and  _384
REMARK  155  A    between atoms: _389  and  _390
REMARK  156  A    between atoms: _392  and  _394
REMARK  157  A    between atoms: _394  and  _395
REMARK  158  A    between atoms: _394  and  _397
REMARK  159  A    between atoms: _397  and  _398
REMARK  160  A    between atoms: _404  and  _406
REMARK  161  A    between atoms: _406  and  _407
REMARK  162  A    between atoms: _406  and  _409
REMARK  163  A    between atoms: _409  and  _410
REMARK  164  A    between atoms: _413  and  _415
REMARK  165  A    between atoms: _415  and  _416
REMARK  166  A    between atoms: _415  and  _418
REMARK  167  A    between atoms: _418  and  _419
REMARK  168  A    between atoms: _422  and  _424
REMARK  169  A    between atoms: _424  and  _425
REMARK  170  A    between atoms: _424  and  _427
REMARK  171  A    between atoms: _427  and  _428
REMARK  172  A    between atoms: _428  and  _429
REMARK                            x       y       z     vdW  Elec       q    Type
REMARK                         _______ _______ _______ _____ _____    ______ ____
ROOT
ATOM      1  O   HOH     1      21.671  39.859  67.746  0.00  0.00    +0.000 OA
ENDROOT
TORSDOF 0
REMARK  Name = ../refined-set-2016/2jke/2jke_pocket.pdb
REMARK  172 active torsions:
REMARK  status: ('A' for Active; 'I' for Inactive)
REMARK    1  A    between atoms: _1  and  _3
REMARK    2  A    between atoms: _3  and  _4
REMARK    3  A    between atoms: _3  and  _6
REMARK    4  A    between atoms: _6  and  _7
REMARK    5  A    between atoms: _7  and  _8
REMARK    6  A    between atoms: _11  and  _13
REMARK    7  A    between atoms: _13  and  _14
REMARK    8  A    between atoms: _13  and  _16
REMARK    9  A    between atoms: _16  and  _17
REMARK   10  A    between atoms: _22  and  _24
REMARK   11  A    between atoms: _24  and  _25
REMARK   12  A    between atoms: _24  and  _27
REMARK   13  A    between atoms: _27  and  _28
REMARK   14  A    between atoms: _33  and  _34
REMARK   15  A    between atoms: _36  and  _38
REMARK   16  A    between atoms: _38  and  _39
REMARK   17  A    between atoms: _38  and  _41
REMARK   18  A    between atoms: _44  and  _46
REMARK   19  A    between atoms: _46  and  _47
REMARK   20  A    between atoms: _46  and  _49
REMARK   21  A    between atoms: _49  and  _50
REMARK   22  A    between atoms: _60  and  _62
REMARK   23  A    between atoms: _62  and  _63
REMARK   24  A    between atoms: _62  and  _65
REMARK   25  A    between atoms: _65  and  _66
REMARK   26  A    between atoms: _76  and  _78
REMARK   27  A    between atoms: _78  and  _79
REMARK   28  A    between atoms: _78  and  _81
REMARK   29  A    between atoms: _81  and  _82
REMARK   30  A    between atoms: _82  and  _83
REMARK   31  A    between atoms: _85  and  _87
REMARK   32  A    between atoms: _87  and  _88
REMARK   33  A    between atoms: _87  and  _90
REMARK   34  A    between atoms: _90  and  _91
REMARK   35  A    between atoms: _94  and  _96
REMARK   36  A    between atoms: _96  and  _97
REMARK   37  A    between atoms: _96  and  _99
REMARK   38  A    between atoms: _99  and  _100
REMARK   39  A    between atoms: _110  and  _112
REMARK   40  A    between atoms: _112  and  _113
REMARK   41  A    between atoms: _112  and  _115
REMARK   42  A    between atoms: _115  and  _116
REMARK   43  A    between atoms: _119  and  _121
REMARK   44  A    between atoms: _121  and  _122
REMARK   45  A    between atoms: _121  and  _124
REMARK   46  A    between atoms: _124  and  _125
REMARK   47  A    between atoms: _125  and  _126
REMARK   48  A    between atoms: _129  and  _131
REMARK   49  A    between atoms: _131  and  _132
REMARK   50  A    between atoms: _134  and  _136
REMARK   51  A    between atoms: _136  and  _137
REMARK   52  A    between atoms: _136  and  _139
REMARK   53  A    between atoms: _139  and  _140
REMARK   54  A    between atoms: _150  and  _152
REMARK   55  A    between atoms: _152  and  _153
REMARK   56  A    between atoms: _152  and  _155
REMARK   57  A    between atoms: _155  and  _156
REMARK   58  A    between atoms: _166  and  _168
REMARK   59  A    between atoms: _168  and  _169
REMARK   60  A    between atoms: _168  and  _171
REMARK   61  A    between atoms: _171  and  _172
REMARK   62  A    between atoms: _178  and  _180
REMARK   63  A    between atoms: _180  and  _181
REMARK   64  A    between atoms: _180  and  _183
REMARK   65  A    between atoms: _183  and  _184
REMARK   66  A    between atoms: _190  and  _192
REMARK   67  A    between atoms: _192  and  _193
REMARK   68  A    between atoms: _192  and  _195
REMARK   69  A    between atoms: _195  and  _196
REMARK   70  A    between atoms: _201  and  _203
REMARK   71  A    between atoms: _203  and  _204
REMARK   72  A    between atoms: _203  and  _206
REMARK   73  A    between atoms: _206  and  _207
REMARK   74  A    between atoms: _212  and  _214
REMARK   75  A    between atoms: _214  and  _215
REMARK   76  A    between atoms: _214  and  _217
REMARK   77  A    between atoms: _217  and  _218
REMARK   78  A    between atoms: _218  and  _219
REMARK   79  A    between atoms: _222  and  _224
REMARK   80  A    between atoms: _224  and  _225
REMARK   81  A    between atoms: _224  and  _227
REMARK   82  A    between atoms: _227  and  _228
REMARK   83  A    between atoms: _231  and  _233
REMARK   84  A    between atoms: _233  and  _234
REMARK   85  A    between atoms: _233  and  _236
REMARK   86  A    between atoms: _236  and  _237
REMARK   87  A    between atoms: _239  and  _241
REMARK   88  A    between atoms: _241  and  _242
REMARK   89  A    between atoms: _241  and  _244
REMARK   90  A    between atoms: _244  and  _245
REMARK   91  A    between atoms: _245  and  _246
REMARK   92  A    between atoms: _246  and  _247
REMARK   93  A    between atoms: _247  and  _248
REMARK   94  A    between atoms: _252  and  _254
REMARK   95  A    between atoms: _254  and  _255
REMARK   96  A    between atoms: _254  and  _257
REMARK   97  A    between atoms: _257  and  _258
REMARK   98  A    between atoms: _260  and  _262
REMARK   99  A    between atoms: _262  and  _263
REMARK  100  A    between atoms: _265  and  _267
REMARK  101  A    between atoms: _267  and  _268
REMARK  102  A    between atoms: _267  and  _270
REMARK  103  A    between atoms: _270  and  _271
REMARK  104  A    between atoms: _276  and  _277
REMARK  105  A    between atoms: _279  and  _281
REMARK  106  A    between atoms: _281  and  _282
REMARK  107  A    between atoms: _281  and  _284
REMARK  108  A    between atoms: _287  and  _289
REMARK  109  A    between atoms: _289  and  _290
REMARK  110  A    between atoms: _292  and  _294
REMARK  111  A    between atoms: _294  and  _295
REMARK  112  A    between atoms: _294  and  _297
REMARK  113  A    between atoms: _297  and  _298
REMARK  114  A    between atoms: _303  and  _305
REMARK  115  A    between atoms: _305  and  _306
REMARK  116  A    between atoms: _309  and  _311
REMARK  117  A    between atoms: _311  and  _312
REMARK  118  A    between atoms: _311  and  _314
REMARK  119  A    between atoms: _314  and  _315
REMARK  120  A    between atoms: _320  and  _322
REMARK  121  A    between atoms: _322  and  _323
REMARK  122  A    between atoms: _322  and  _325
REMARK  123  A    between atoms: _325  and  _326
REMARK  124  A    between atoms: _326  and  _327
REMARK  125  A    between atoms: _327  and  _329
REMARK  126  A    between atoms: _329  and  CA_431
REMARK  127  A    between atoms: _330  and  _332
REMARK  128  A    between atoms: _332  and  _333
REMARK  129  A    between atoms: _332  and  _335
REMARK  130  A    between atoms: _335  and  _336
REMARK  131  A    between atoms: _336  and  _337
REMARK  132  A    between atoms: _337  and  _338
REMARK  133  A    between atoms: _338  and  CA_431
REMARK  134  A    between atoms: _340  and  _342
REMARK  135  A    between atoms: _342  and  _343
REMARK  136  A    between atoms: _342  and  _345
REMARK  137  A    between atoms: _345  and  _346
REMARK  138  A    between atoms: _348  and  _350
REMARK  139  A    between atoms: _350  and  _351
REMARK  140  A    between atoms: _354  and  _356
REMARK  141  A    between atoms: _356  and  _357
REMARK  142  A    between atoms: _359  and  _361
REMARK  143  A    between atoms: _361  and  _362
REMARK  144  A    between atoms: _361  and  _364
REMARK  145  A    between atoms: _364  and  _365
REMARK  146  A    between atoms: _368  and  _370
REMARK  147  A    between atoms: _370  and  _371
REMARK  148  A    between atoms: _370  and  _373
REMARK  149  A    between atoms: _373  and  _374
REMARK  150  A    between atoms: _374  and  _375
REMARK  151  A    between atoms: _378  and  _380
REMARK  152  A    between atoms: _380  and  _381
REMARK  153  A    between atoms: _380  and  _383
REMARK  154  A    between atoms: _383  and  _384
REMARK  155  A    between atoms: _389  and  _390
REMARK  156  A    between atoms: _392  and  _394
REMARK  157  A    between atoms: _394  and  _395
REMARK  158  A    between atoms: _394  and  _397
REMARK  159  A    between atoms: _397  and  _398
REMARK  160  A    between atoms: _404  and  _406
REMARK  161  A    between atoms: _406  and  _407
REMARK  162  A    between atoms: _406  and  _409
REMARK  163  A    between atoms: _409  and  _410
REMARK  164  A    between atoms: _413  and  _415
REMARK  165  A    between atoms: _415  and  _416
REMARK  166  A    between atoms: _415  and  _418
REMARK  167  A    between atoms: _418  and  _419
REMARK  168  A    between atoms: _422  and  _424
REMARK  169  A    between atoms: _424  and  _425
REMARK  170  A    between atoms: _424  and  _427
REMARK  171  A    between atoms: _427  and  _428
REMARK  172  A    between atoms: _428  and  _429
REMARK                            x       y       z     vdW  Elec       q    Type
REMARK                         _______ _______ _______ _____ _____    ______ ____
ROOT
ATOM      1  O   HOH     1      19.499  49.384  64.877  0.00  0.00    +0.000 OA
ENDROOT
TORSDOF 0
REMARK  Name = ../refined-set-2016/2jke/2jke_pocket.pdb
REMARK  172 active torsions:
REMARK  status: ('A' for Active; 'I' for Inactive)
REMARK    1  A    between atoms: _1  and  _3
REMARK    2  A    between atoms: _3  and  _4
REMARK    3  A    between atoms: _3  and  _6
REMARK    4  A    between atoms: _6  and  _7
REMARK    5  A    between atoms: _7  and  _8
REMARK    6  A    between atoms: _11  and  _13
REMARK    7  A    between atoms: _13  and  _14
REMARK    8  A    between atoms: _13  and  _16
REMARK    9  A    between atoms: _16  and  _17
REMARK   10  A    between atoms: _22  and  _24
REMARK   11  A    between atoms: _24  and  _25
REMARK   12  A    between atoms: _24  and  _27
REMARK   13  A    between atoms: _27  and  _28
REMARK   14  A    between atoms: _33  and  _34
REMARK   15  A    between atoms: _36  and  _38
REMARK   16  A    between atoms: _38  and  _39
REMARK   17  A    between atoms: _38  and  _41
REMARK   18  A    between atoms: _44  and  _46
REMARK   19  A    between atoms: _46  and  _47
REMARK   20  A    between atoms: _46  and  _49
REMARK   21  A    between atoms: _49  and  _50
REMARK   22  A    between atoms: _60  and  _62
REMARK   23  A    between atoms: _62  and  _63
REMARK   24  A    between atoms: _62  and  _65
REMARK   25  A    between atoms: _65  and  _66
REMARK   26  A    between atoms: _76  and  _78
REMARK   27  A    between atoms: _78  and  _79
REMARK   28  A    between atoms: _78  and  _81
REMARK   29  A    between atoms: _81  and  _82
REMARK   30  A    between atoms: _82  and  _83
REMARK   31  A    between atoms: _85  and  _87
REMARK   32  A    between atoms: _87  and  _88
REMARK   33  A    between atoms: _87  and  _90
REMARK   34  A    between atoms: _90  and  _91
REMARK   35  A    between atoms: _94  and  _96
REMARK   36  A    between atoms: _96  and  _97
REMARK   37  A    between atoms: _96  and  _99
REMARK   38  A    between atoms: _99  and  _100
REMARK   39  A    between atoms: _110  and  _112
REMARK   40  A    between atoms: _112  and  _113
REMARK   41  A    between atoms: _112  and  _115
REMARK   42  A    between atoms: _115  and  _116
REMARK   43  A    between atoms: _119  and  _121
REMARK   44  A    between atoms: _121  and  _122
REMARK   45  A    between atoms: _121  and  _124
REMARK   46  A    between atoms: _124  and  _125
REMARK   47  A    between atoms: _125  and  _126
REMARK   48  A    between atoms: _129  and  _131
REMARK   49  A    between atoms: _131  and  _132
REMARK   50  A    between atoms: _134  and  _136
REMARK   51  A    between atoms: _136  and  _137
REMARK   52  A    between atoms: _136  and  _139
REMARK   53  A    between atoms: _139  and  _140
REMARK   54  A    between atoms: _150  and  _152
REMARK   55  A    between atoms: _152  and  _153
REMARK   56  A    between atoms: _152  and  _155
REMARK   57  A    between atoms: _155  and  _156
REMARK   58  A    between atoms: _166  and  _168
REMARK   59  A    between atoms: _168  and  _169
REMARK   60  A    between atoms: _168  and  _171
REMARK   61  A    between atoms: _171  and  _172
REMARK   62  A    between atoms: _178  and  _180
REMARK   63  A    between atoms: _180  and  _181
REMARK   64  A    between atoms: _180  and  _183
REMARK   65  A    between atoms: _183  and  _184
REMARK   66  A    between atoms: _190  and  _192
REMARK   67  A    between atoms: _192  and  _193
REMARK   68  A    between atoms: _192  and  _195
REMARK   69  A    between atoms: _195  and  _196
REMARK   70  A    between atoms: _201  and  _203
REMARK   71  A    between atoms: _203  and  _204
REMARK   72  A    between atoms: _203  and  _206
REMARK   73  A    between atoms: _206  and  _207
REMARK   74  A    between atoms: _212  and  _214
REMARK   75  A    between atoms: _214  and  _215
REMARK   76  A    between atoms: _214  and  _217
REMARK   77  A    between atoms: _217  and  _218
REMARK   78  A    between atoms: _218  and  _219
REMARK   79  A    between atoms: _222  and  _224
REMARK   80  A    between atoms: _224  and  _225
REMARK   81  A    between atoms: _224  and  _227
REMARK   82  A    between atoms: _227  and  _228
REMARK   83  A    between atoms: _231  and  _233
REMARK   84  A    between atoms: _233  and  _234
REMARK   85  A    between atoms: _233  and  _236
REMARK   86  A    between atoms: _236  and  _237
REMARK   87  A    between atoms: _239  and  _241
REMARK   88  A    between atoms: _241  and  _242
REMARK   89  A    between atoms: _241  and  _244
REMARK   90  A    between atoms: _244  and  _245
REMARK   91  A    between atoms: _245  and  _246
REMARK   92  A    between atoms: _246  and  _247
REMARK   93  A    between atoms: _247  and  _248
REMARK   94  A    between atoms: _252  and  _254
REMARK   95  A    between atoms: _254  and  _255
REMARK   96  A    between atoms: _254  and  _257
REMARK   97  A    between atoms: _257  and  _258
REMARK   98  A    between atoms: _260  and  _262
REMARK   99  A    between atoms: _262  and  _263
REMARK  100  A    between atoms: _265  and  _267
REMARK  101  A    between atoms: _267  and  _268
REMARK  102  A    between atoms: _267  and  _270
REMARK  103  A    between atoms: _270  and  _271
REMARK  104  A    between atoms: _276  and  _277
REMARK  105  A    between atoms: _279  and  _281
REMARK  106  A    between atoms: _281  and  _282
REMARK  107  A    between atoms: _281  and  _284
REMARK  108  A    between atoms: _287  and  _289
REMARK  109  A    between atoms: _289  and  _290
REMARK  110  A    between atoms: _292  and  _294
REMARK  111  A    between atoms: _294  and  _295
REMARK  112  A    between atoms: _294  and  _297
REMARK  113  A    between atoms: _297  and  _298
REMARK  114  A    between atoms: _303  and  _305
REMARK  115  A    between atoms: _305  and  _306
REMARK  116  A    between atoms: _309  and  _311
REMARK  117  A    between atoms: _311  and  _312
REMARK  118  A    between atoms: _311  and  _314
REMARK  119  A    between atoms: _314  and  _315
REMARK  120  A    between atoms: _320  and  _322
REMARK  121  A    between atoms: _322  and  _323
REMARK  122  A    between atoms: _322  and  _325
REMARK  123  A    between atoms: _325  and  _326
REMARK  124  A    between atoms: _326  and  _327
REMARK  125  A    between atoms: _327  and  _329
REMARK  126  A    between atoms: _329  and  CA_431
REMARK  127  A    between atoms: _330  and  _332
REMARK  128  A    between atoms: _332  and  _333
REMARK  129  A    between atoms: _332  and  _335
REMARK  130  A    between atoms: _335  and  _336
REMARK  131  A    between atoms: _336  and  _337
REMARK  132  A    between atoms: _337  and  _338
REMARK  133  A    between atoms: _338  and  CA_431
REMARK  134  A    between atoms: _340  and  _342
REMARK  135  A    between atoms: _342  and  _343
REMARK  136  A    between atoms: _342  and  _345
REMARK  137  A    between atoms: _345  and  _346
REMARK  138  A    between atoms: _348  and  _350
REMARK  139  A    between atoms: _350  and  _351
REMARK  140  A    between atoms: _354  and  _356
REMARK  141  A    between atoms: _356  and  _357
REMARK  142  A    between atoms: _359  and  _361
REMARK  143  A    between atoms: _361  and  _362
REMARK  144  A    between atoms: _361  and  _364
REMARK  145  A    between atoms: _364  and  _365
REMARK  146  A    between atoms: _368  and  _370
REMARK  147  A    between atoms: _370  and  _371
REMARK  148  A    between atoms: _370  and  _373
REMARK  149  A    between atoms: _373  and  _374
REMARK  150  A    between atoms: _374  and  _375
REMARK  151  A    between atoms: _378  and  _380
REMARK  152  A    between atoms: _380  and  _381
REMARK  153  A    between atoms: _380  and  _383
REMARK  154  A    between atoms: _383  and  _384
REMARK  155  A    between atoms: _389  and  _390
REMARK  156  A    between atoms: _392  and  _394
REMARK  157  A    between atoms: _394  and  _395
REMARK  158  A    between atoms: _394  and  _397
REMARK  159  A    between atoms: _397  and  _398
REMARK  160  A    between atoms: _404  and  _406
REMARK  161  A    between atoms: _406  and  _407
REMARK  162  A    between atoms: _406  and  _409
REMARK  163  A    between atoms: _409  and  _410
REMARK  164  A    between atoms: _413  and  _415
REMARK  165  A    between atoms: _415  and  _416
REMARK  166  A    between atoms: _415  and  _418
REMARK  167  A    between atoms: _418  and  _419
REMARK  168  A    between atoms: _422  and  _424
REMARK  169  A    between atoms: _424  and  _425
REMARK  170  A    between atoms: _424  and  _427
REMARK  171  A    between atoms: _427  and  _428
REMARK  172  A    between atoms: _428  and  _429
REMARK                            x       y       z     vdW  Elec       q    Type
REMARK                         _______ _______ _______ _____ _____    ______ ____
ROOT
ATOM      1  O   HOH     1      21.137  35.110  73.405  0.00  0.00    +0.000 OA
ENDROOT
TORSDOF 0
REMARK  Name = ../refined-set-2016/2jke/2jke_pocket.pdb
REMARK  172 active torsions:
REMARK  status: ('A' for Active; 'I' for Inactive)
REMARK    1  A    between atoms: _1  and  _3
REMARK    2  A    between atoms: _3  and  _4
REMARK    3  A    between atoms: _3  and  _6
REMARK    4  A    between atoms: _6  and  _7
REMARK    5  A    between atoms: _7  and  _8
REMARK    6  A    between atoms: _11  and  _13
REMARK    7  A    between atoms: _13  and  _14
REMARK    8  A    between atoms: _13  and  _16
REMARK    9  A    between atoms: _16  and  _17
REMARK   10  A    between atoms: _22  and  _24
REMARK   11  A    between atoms: _24  and  _25
REMARK   12  A    between atoms: _24  and  _27
REMARK   13  A    between atoms: _27  and  _28
REMARK   14  A    between atoms: _33  and  _34
REMARK   15  A    between atoms: _36  and  _38
REMARK   16  A    between atoms: _38  and  _39
REMARK   17  A    between atoms: _38  and  _41
REMARK   18  A    between atoms: _44  and  _46
REMARK   19  A    between atoms: _46  and  _47
REMARK   20  A    between atoms: _46  and  _49
REMARK   21  A    between atoms: _49  and  _50
REMARK   22  A    between atoms: _60  and  _62
REMARK   23  A    between atoms: _62  and  _63
REMARK   24  A    between atoms: _62  and  _65
REMARK   25  A    between atoms: _65  and  _66
REMARK   26  A    between atoms: _76  and  _78
REMARK   27  A    between atoms: _78  and  _79
REMARK   28  A    between atoms: _78  and  _81
REMARK   29  A    between atoms: _81  and  _82
REMARK   30  A    between atoms: _82  and  _83
REMARK   31  A    between atoms: _85  and  _87
REMARK   32  A    between atoms: _87  and  _88
REMARK   33  A    between atoms: _87  and  _90
REMARK   34  A    between atoms: _90  and  _91
REMARK   35  A    between atoms: _94  and  _96
REMARK   36  A    between atoms: _96  and  _97
REMARK   37  A    between atoms: _96  and  _99
REMARK   38  A    between atoms: _99  and  _100
REMARK   39  A    between atoms: _110  and  _112
REMARK   40  A    between atoms: _112  and  _113
REMARK   41  A    between atoms: _112  and  _115
REMARK   42  A    between atoms: _115  and  _116
REMARK   43  A    between atoms: _119  and  _121
REMARK   44  A    between atoms: _121  and  _122
REMARK   45  A    between atoms: _121  and  _124
REMARK   46  A    between atoms: _124  and  _125
REMARK   47  A    between atoms: _125  and  _126
REMARK   48  A    between atoms: _129  and  _131
REMARK   49  A    between atoms: _131  and  _132
REMARK   50  A    between atoms: _134  and  _136
REMARK   51  A    between atoms: _136  and  _137
REMARK   52  A    between atoms: _136  and  _139
REMARK   53  A    between atoms: _139  and  _140
REMARK   54  A    between atoms: _150  and  _152
REMARK   55  A    between atoms: _152  and  _153
REMARK   56  A    between atoms: _152  and  _155
REMARK   57  A    between atoms: _155  and  _156
REMARK   58  A    between atoms: _166  and  _168
REMARK   59  A    between atoms: _168  and  _169
REMARK   60  A    between atoms: _168  and  _171
REMARK   61  A    between atoms: _171  and  _172
REMARK   62  A    between atoms: _178  and  _180
REMARK   63  A    between atoms: _180  and  _181
REMARK   64  A    between atoms: _180  and  _183
REMARK   65  A    between atoms: _183  and  _184
REMARK   66  A    between atoms: _190  and  _192
REMARK   67  A    between atoms: _192  and  _193
REMARK   68  A    between atoms: _192  and  _195
REMARK   69  A    between atoms: _195  and  _196
REMARK   70  A    between atoms: _201  and  _203
REMARK   71  A    between atoms: _203  and  _204
REMARK   72  A    between atoms: _203  and  _206
REMARK   73  A    between atoms: _206  and  _207
REMARK   74  A    between atoms: _212  and  _214
REMARK   75  A    between atoms: _214  and  _215
REMARK   76  A    between atoms: _214  and  _217
REMARK   77  A    between atoms: _217  and  _218
REMARK   78  A    between atoms: _218  and  _219
REMARK   79  A    between atoms: _222  and  _224
REMARK   80  A    between atoms: _224  and  _225
REMARK   81  A    between atoms: _224  and  _227
REMARK   82  A    between atoms: _227  and  _228
REMARK   83  A    between atoms: _231  and  _233
REMARK   84  A    between atoms: _233  and  _234
REMARK   85  A    between atoms: _233  and  _236
REMARK   86  A    between atoms: _236  and  _237
REMARK   87  A    between atoms: _239  and  _241
REMARK   88  A    between atoms: _241  and  _242
REMARK   89  A    between atoms: _241  and  _244
REMARK   90  A    between atoms: _244  and  _245
REMARK   91  A    between atoms: _245  and  _246
REMARK   92  A    between atoms: _246  and  _247
REMARK   93  A    between atoms: _247  and  _248
REMARK   94  A    between atoms: _252  and  _254
REMARK   95  A    between atoms: _254  and  _255
REMARK   96  A    between atoms: _254  and  _257
REMARK   97  A    between atoms: _257  and  _258
REMARK   98  A    between atoms: _260  and  _262
REMARK   99  A    between atoms: _262  and  _263
REMARK  100  A    between atoms: _265  and  _267
REMARK  101  A    between atoms: _267  and  _268
REMARK  102  A    between atoms: _267  and  _270
REMARK  103  A    between atoms: _270  and  _271
REMARK  104  A    between atoms: _276  and  _277
REMARK  105  A    between atoms: _279  and  _281
REMARK  106  A    between atoms: _281  and  _282
REMARK  107  A    between atoms: _281  and  _284
REMARK  108  A    between atoms: _287  and  _289
REMARK  109  A    between atoms: _289  and  _290
REMARK  110  A    between atoms: _292  and  _294
REMARK  111  A    between atoms: _294  and  _295
REMARK  112  A    between atoms: _294  and  _297
REMARK  113  A    between atoms: _297  and  _298
REMARK  114  A    between atoms: _303  and  _305
REMARK  115  A    between atoms: _305  and  _306
REMARK  116  A    between atoms: _309  and  _311
REMARK  117  A    between atoms: _311  and  _312
REMARK  118  A    between atoms: _311  and  _314
REMARK  119  A    between atoms: _314  and  _315
REMARK  120  A    between atoms: _320  and  _322
REMARK  121  A    between atoms: _322  and  _323
REMARK  122  A    between atoms: _322  and  _325
REMARK  123  A    between atoms: _325  and  _326
REMARK  124  A    between atoms: _326  and  _327
REMARK  125  A    between atoms: _327  and  _329
REMARK  126  A    between atoms: _329  and  CA_431
REMARK  127  A    between atoms: _330  and  _332
REMARK  128  A    between atoms: _332  and  _333
REMARK  129  A    between atoms: _332  and  _335
REMARK  130  A    between atoms: _335  and  _336
REMARK  131  A    between atoms: _336  and  _337
REMARK  132  A    between atoms: _337  and  _338
REMARK  133  A    between atoms: _338  and  CA_431
REMARK  134  A    between atoms: _340  and  _342
REMARK  135  A    between atoms: _342  and  _343
REMARK  136  A    between atoms: _342  and  _345
REMARK  137  A    between atoms: _345  and  _346
REMARK  138  A    between atoms: _348  and  _350
REMARK  139  A    between atoms: _350  and  _351
REMARK  140  A    between atoms: _354  and  _356
REMARK  141  A    between atoms: _356  and  _357
REMARK  142  A    between atoms: _359  and  _361
REMARK  143  A    between atoms: _361  and  _362
REMARK  144  A    between atoms: _361  and  _364
REMARK  145  A    between atoms: _364  and  _365
REMARK  146  A    between atoms: _368  and  _370
REMARK  147  A    between atoms: _370  and  _371
REMARK  148  A    between atoms: _370  and  _373
REMARK  149  A    between atoms: _373  and  _374
REMARK  150  A    between atoms: _374  and  _375
REMARK  151  A    between atoms: _378  and  _380
REMARK  152  A    between atoms: _380  and  _381
REMARK  153  A    between atoms: _380  and  _383
REMARK  154  A    between atoms: _383  and  _384
REMARK  155  A    between atoms: _389  and  _390
REMARK  156  A    between atoms: _392  and  _394
REMARK  157  A    between atoms: _394  and  _395
REMARK  158  A    between atoms: _394  and  _397
REMARK  159  A    between atoms: _397  and  _398
REMARK  160  A    between atoms: _404  and  _406
REMARK  161  A    between atoms: _406  and  _407
REMARK  162  A    between atoms: _406  and  _409
REMARK  163  A    between atoms: _409  and  _410
REMARK  164  A    between atoms: _413  and  _415
REMARK  165  A    between atoms: _415  and  _416
REMARK  166  A    between atoms: _415  and  _418
REMARK  167  A    between atoms: _418  and  _419
REMARK  168  A    between atoms: _422  and  _424
REMARK  169  A    between atoms: _424  and  _425
REMARK  170  A    between atoms: _424  and  _427
REMARK  171  A    between atoms: _427  and  _428
REMARK  172  A    between atoms: _428  and  _429
REMARK                            x       y       z     vdW  Elec       q    Type
REMARK                         _______ _______ _______ _____ _____    ______ ____
ROOT
ATOM      1  O   HOH     1      17.698  45.884  71.462  0.00  0.00    +0.000 OA
ENDROOT
TORSDOF 0
REMARK  Name = ../refined-set-2016/2jke/2jke_pocket.pdb
REMARK  172 active torsions:
REMARK  status: ('A' for Active; 'I' for Inactive)
REMARK    1  A    between atoms: _1  and  _3
REMARK    2  A    between atoms: _3  and  _4
REMARK    3  A    between atoms: _3  and  _6
REMARK    4  A    between atoms: _6  and  _7
REMARK    5  A    between atoms: _7  and  _8
REMARK    6  A    between atoms: _11  and  _13
REMARK    7  A    between atoms: _13  and  _14
REMARK    8  A    between atoms: _13  and  _16
REMARK    9  A    between atoms: _16  and  _17
REMARK   10  A    between atoms: _22  and  _24
REMARK   11  A    between atoms: _24  and  _25
REMARK   12  A    between atoms: _24  and  _27
REMARK   13  A    between atoms: _27  and  _28
REMARK   14  A    between atoms: _33  and  _34
REMARK   15  A    between atoms: _36  and  _38
REMARK   16  A    between atoms: _38  and  _39
REMARK   17  A    between atoms: _38  and  _41
REMARK   18  A    between atoms: _44  and  _46
REMARK   19  A    between atoms: _46  and  _47
REMARK   20  A    between atoms: _46  and  _49
REMARK   21  A    between atoms: _49  and  _50
REMARK   22  A    between atoms: _60  and  _62
REMARK   23  A    between atoms: _62  and  _63
REMARK   24  A    between atoms: _62  and  _65
REMARK   25  A    between atoms: _65  and  _66
REMARK   26  A    between atoms: _76  and  _78
REMARK   27  A    between atoms: _78  and  _79
REMARK   28  A    between atoms: _78  and  _81
REMARK   29  A    between atoms: _81  and  _82
REMARK   30  A    between atoms: _82  and  _83
REMARK   31  A    between atoms: _85  and  _87
REMARK   32  A    between atoms: _87  and  _88
REMARK   33  A    between atoms: _87  and  _90
REMARK   34  A    between atoms: _90  and  _91
REMARK   35  A    between atoms: _94  and  _96
REMARK   36  A    between atoms: _96  and  _97
REMARK   37  A    between atoms: _96  and  _99
REMARK   38  A    between atoms: _99  and  _100
REMARK   39  A    between atoms: _110  and  _112
REMARK   40  A    between atoms: _112  and  _113
REMARK   41  A    between atoms: _112  and  _115
REMARK   42  A    between atoms: _115  and  _116
REMARK   43  A    between atoms: _119  and  _121
REMARK   44  A    between atoms: _121  and  _122
REMARK   45  A    between atoms: _121  and  _124
REMARK   46  A    between atoms: _124  and  _125
REMARK   47  A    between atoms: _125  and  _126
REMARK   48  A    between atoms: _129  and  _131
REMARK   49  A    between atoms: _131  and  _132
REMARK   50  A    between atoms: _134  and  _136
REMARK   51  A    between atoms: _136  and  _137
REMARK   52  A    between atoms: _136  and  _139
REMARK   53  A    between atoms: _139  and  _140
REMARK   54  A    between atoms: _150  and  _152
REMARK   55  A    between atoms: _152  and  _153
REMARK   56  A    between atoms: _152  and  _155
REMARK   57  A    between atoms: _155  and  _156
REMARK   58  A    between atoms: _166  and  _168
REMARK   59  A    between atoms: _168  and  _169
REMARK   60  A    between atoms: _168  and  _171
REMARK   61  A    between atoms: _171  and  _172
REMARK   62  A    between atoms: _178  and  _180
REMARK   63  A    between atoms: _180  and  _181
REMARK   64  A    between atoms: _180  and  _183
REMARK   65  A    between atoms: _183  and  _184
REMARK   66  A    between atoms: _190  and  _192
REMARK   67  A    between atoms: _192  and  _193
REMARK   68  A    between atoms: _192  and  _195
REMARK   69  A    between atoms: _195  and  _196
REMARK   70  A    between atoms: _201  and  _203
REMARK   71  A    between atoms: _203  and  _204
REMARK   72  A    between atoms: _203  and  _206
REMARK   73  A    between atoms: _206  and  _207
REMARK   74  A    between atoms: _212  and  _214
REMARK   75  A    between atoms: _214  and  _215
REMARK   76  A    between atoms: _214  and  _217
REMARK   77  A    between atoms: _217  and  _218
REMARK   78  A    between atoms: _218  and  _219
REMARK   79  A    between atoms: _222  and  _224
REMARK   80  A    between atoms: _224  and  _225
REMARK   81  A    between atoms: _224  and  _227
REMARK   82  A    between atoms: _227  and  _228
REMARK   83  A    between atoms: _231  and  _233
REMARK   84  A    between atoms: _233  and  _234
REMARK   85  A    between atoms: _233  and  _236
REMARK   86  A    between atoms: _236  and  _237
REMARK   87  A    between atoms: _239  and  _241
REMARK   88  A    between atoms: _241  and  _242
REMARK   89  A    between atoms: _241  and  _244
REMARK   90  A    between atoms: _244  and  _245
REMARK   91  A    between atoms: _245  and  _246
REMARK   92  A    between atoms: _246  and  _247
REMARK   93  A    between atoms: _247  and  _248
REMARK   94  A    between atoms: _252  and  _254
REMARK   95  A    between atoms: _254  and  _255
REMARK   96  A    between atoms: _254  and  _257
REMARK   97  A    between atoms: _257  and  _258
REMARK   98  A    between atoms: _260  and  _262
REMARK   99  A    between atoms: _262  and  _263
REMARK  100  A    between atoms: _265  and  _267
REMARK  101  A    between atoms: _267  and  _268
REMARK  102  A    between atoms: _267  and  _270
REMARK  103  A    between atoms: _270  and  _271
REMARK  104  A    between atoms: _276  and  _277
REMARK  105  A    between atoms: _279  and  _281
REMARK  106  A    between atoms: _281  and  _282
REMARK  107  A    between atoms: _281  and  _284
REMARK  108  A    between atoms: _287  and  _289
REMARK  109  A    between atoms: _289  and  _290
REMARK  110  A    between atoms: _292  and  _294
REMARK  111  A    between atoms: _294  and  _295
REMARK  112  A    between atoms: _294  and  _297
REMARK  113  A    between atoms: _297  and  _298
REMARK  114  A    between atoms: _303  and  _305
REMARK  115  A    between atoms: _305  and  _306
REMARK  116  A    between atoms: _309  and  _311
REMARK  117  A    between atoms: _311  and  _312
REMARK  118  A    between atoms: _311  and  _314
REMARK  119  A    between atoms: _314  and  _315
REMARK  120  A    between atoms: _320  and  _322
REMARK  121  A    between atoms: _322  and  _323
REMARK  122  A    between atoms: _322  and  _325
REMARK  123  A    between atoms: _325  and  _326
REMARK  124  A    between atoms: _326  and  _327
REMARK  125  A    between atoms: _327  and  _329
REMARK  126  A    between atoms: _329  and  CA_431
REMARK  127  A    between atoms: _330  and  _332
REMARK  128  A    between atoms: _332  and  _333
REMARK  129  A    between atoms: _332  and  _335
REMARK  130  A    between atoms: _335  and  _336
REMARK  131  A    between atoms: _336  and  _337
REMARK  132  A    between atoms: _337  and  _338
REMARK  133  A    between atoms: _338  and  CA_431
REMARK  134  A    between atoms: _340  and  _342
REMARK  135  A    between atoms: _342  and  _343
REMARK  136  A    between atoms: _342  and  _345
REMARK  137  A    between atoms: _345  and  _346
REMARK  138  A    between atoms: _348  and  _350
REMARK  139  A    between atoms: _350  and  _351
REMARK  140  A    between atoms: _354  and  _356
REMARK  141  A    between atoms: _356  and  _357
REMARK  142  A    between atoms: _359  and  _361
REMARK  143  A    between atoms: _361  and  _362
REMARK  144  A    between atoms: _361  and  _364
REMARK  145  A    between atoms: _364  and  _365
REMARK  146  A    between atoms: _368  and  _370
REMARK  147  A    between atoms: _370  and  _371
REMARK  148  A    between atoms: _370  and  _373
REMARK  149  A    between atoms: _373  and  _374
REMARK  150  A    between atoms: _374  and  _375
REMARK  151  A    between atoms: _378  and  _380
REMARK  152  A    between atoms: _380  and  _381
REMARK  153  A    between atoms: _380  and  _383
REMARK  154  A    between atoms: _383  and  _384
REMARK  155  A    between atoms: _389  and  _390
REMARK  156  A    between atoms: _392  and  _394
REMARK  157  A    between atoms: _394  and  _395
REMARK  158  A    between atoms: _394  and  _397
REMARK  159  A    between atoms: _397  and  _398
REMARK  160  A    between atoms: _404  and  _406
REMARK  161  A    between atoms: _406  and  _407
REMARK  162  A    between atoms: _406  and  _409
REMARK  163  A    between atoms: _409  and  _410
REMARK  164  A    between atoms: _413  and  _415
REMARK  165  A    between atoms: _415  and  _416
REMARK  166  A    between atoms: _415  and  _418
REMARK  167  A    between atoms: _418  and  _419
REMARK  168  A    between atoms: _422  and  _424
REMARK  169  A    between atoms: _424  and  _425
REMARK  170  A    between atoms: _424  and  _427
REMARK  171  A    between atoms: _427  and  _428
REMARK  172  A    between atoms: _428  and  _429
REMARK                            x       y       z     vdW  Elec       q    Type
REMARK                         _______ _______ _______ _____ _____    ______ ____
ROOT
ATOM      1  O   HOH     1      21.400  47.664  74.080  0.00  0.00    +0.000 OA
ENDROOT
TORSDOF 0
REMARK  Name = ../refined-set-2016/2jke/2jke_pocket.pdb
REMARK  172 active torsions:
REMARK  status: ('A' for Active; 'I' for Inactive)
REMARK    1  A    between atoms: _1  and  _3
REMARK    2  A    between atoms: _3  and  _4
REMARK    3  A    between atoms: _3  and  _6
REMARK    4  A    between atoms: _6  and  _7
REMARK    5  A    between atoms: _7  and  _8
REMARK    6  A    between atoms: _11  and  _13
REMARK    7  A    between atoms: _13  and  _14
REMARK    8  A    between atoms: _13  and  _16
REMARK    9  A    between atoms: _16  and  _17
REMARK   10  A    between atoms: _22  and  _24
REMARK   11  A    between atoms: _24  and  _25
REMARK   12  A    between atoms: _24  and  _27
REMARK   13  A    between atoms: _27  and  _28
REMARK   14  A    between atoms: _33  and  _34
REMARK   15  A    between atoms: _36  and  _38
REMARK   16  A    between atoms: _38  and  _39
REMARK   17  A    between atoms: _38  and  _41
REMARK   18  A    between atoms: _44  and  _46
REMARK   19  A    between atoms: _46  and  _47
REMARK   20  A    between atoms: _46  and  _49
REMARK   21  A    between atoms: _49  and  _50
REMARK   22  A    between atoms: _60  and  _62
REMARK   23  A    between atoms: _62  and  _63
REMARK   24  A    between atoms: _62  and  _65
REMARK   25  A    between atoms: _65  and  _66
REMARK   26  A    between atoms: _76  and  _78
REMARK   27  A    between atoms: _78  and  _79
REMARK   28  A    between atoms: _78  and  _81
REMARK   29  A    between atoms: _81  and  _82
REMARK   30  A    between atoms: _82  and  _83
REMARK   31  A    between atoms: _85  and  _87
REMARK   32  A    between atoms: _87  and  _88
REMARK   33  A    between atoms: _87  and  _90
REMARK   34  A    between atoms: _90  and  _91
REMARK   35  A    between atoms: _94  and  _96
REMARK   36  A    between atoms: _96  and  _97
REMARK   37  A    between atoms: _96  and  _99
REMARK   38  A    between atoms: _99  and  _100
REMARK   39  A    between atoms: _110  and  _112
REMARK   40  A    between atoms: _112  and  _113
REMARK   41  A    between atoms: _112  and  _115
REMARK   42  A    between atoms: _115  and  _116
REMARK   43  A    between atoms: _119  and  _121
REMARK   44  A    between atoms: _121  and  _122
REMARK   45  A    between atoms: _121  and  _124
REMARK   46  A    between atoms: _124  and  _125
REMARK   47  A    between atoms: _125  and  _126
REMARK   48  A    between atoms: _129  and  _131
REMARK   49  A    between atoms: _131  and  _132
REMARK   50  A    between atoms: _134  and  _136
REMARK   51  A    between atoms: _136  and  _137
REMARK   52  A    between atoms: _136  and  _139
REMARK   53  A    between atoms: _139  and  _140
REMARK   54  A    between atoms: _150  and  _152
REMARK   55  A    between atoms: _152  and  _153
REMARK   56  A    between atoms: _152  and  _155
REMARK   57  A    between atoms: _155  and  _156
REMARK   58  A    between atoms: _166  and  _168
REMARK   59  A    between atoms: _168  and  _169
REMARK   60  A    between atoms: _168  and  _171
REMARK   61  A    between atoms: _171  and  _172
REMARK   62  A    between atoms: _178  and  _180
REMARK   63  A    between atoms: _180  and  _181
REMARK   64  A    between atoms: _180  and  _183
REMARK   65  A    between atoms: _183  and  _184
REMARK   66  A    between atoms: _190  and  _192
REMARK   67  A    between atoms: _192  and  _193
REMARK   68  A    between atoms: _192  and  _195
REMARK   69  A    between atoms: _195  and  _196
REMARK   70  A    between atoms: _201  and  _203
REMARK   71  A    between atoms: _203  and  _204
REMARK   72  A    between atoms: _203  and  _206
REMARK   73  A    between atoms: _206  and  _207
REMARK   74  A    between atoms: _212  and  _214
REMARK   75  A    between atoms: _214  and  _215
REMARK   76  A    between atoms: _214  and  _217
REMARK   77  A    between atoms: _217  and  _218
REMARK   78  A    between atoms: _218  and  _219
REMARK   79  A    between atoms: _222  and  _224
REMARK   80  A    between atoms: _224  and  _225
REMARK   81  A    between atoms: _224  and  _227
REMARK   82  A    between atoms: _227  and  _228
REMARK   83  A    between atoms: _231  and  _233
REMARK   84  A    between atoms: _233  and  _234
REMARK   85  A    between atoms: _233  and  _236
REMARK   86  A    between atoms: _236  and  _237
REMARK   87  A    between atoms: _239  and  _241
REMARK   88  A    between atoms: _241  and  _242
REMARK   89  A    between atoms: _241  and  _244
REMARK   90  A    between atoms: _244  and  _245
REMARK   91  A    between atoms: _245  and  _246
REMARK   92  A    between atoms: _246  and  _247
REMARK   93  A    between atoms: _247  and  _248
REMARK   94  A    between atoms: _252  and  _254
REMARK   95  A    between atoms: _254  and  _255
REMARK   96  A    between atoms: _254  and  _257
REMARK   97  A    between atoms: _257  and  _258
REMARK   98  A    between atoms: _260  and  _262
REMARK   99  A    between atoms: _262  and  _263
REMARK  100  A    between atoms: _265  and  _267
REMARK  101  A    between atoms: _267  and  _268
REMARK  102  A    between atoms: _267  and  _270
REMARK  103  A    between atoms: _270  and  _271
REMARK  104  A    between atoms: _276  and  _277
REMARK  105  A    between atoms: _279  and  _281
REMARK  106  A    between atoms: _281  and  _282
REMARK  107  A    between atoms: _281  and  _284
REMARK  108  A    between atoms: _287  and  _289
REMARK  109  A    between atoms: _289  and  _290
REMARK  110  A    between atoms: _292  and  _294
REMARK  111  A    between atoms: _294  and  _295
REMARK  112  A    between atoms: _294  and  _297
REMARK  113  A    between atoms: _297  and  _298
REMARK  114  A    between atoms: _303  and  _305
REMARK  115  A    between atoms: _305  and  _306
REMARK  116  A    between atoms: _309  and  _311
REMARK  117  A    between atoms: _311  and  _312
REMARK  118  A    between atoms: _311  and  _314
REMARK  119  A    between atoms: _314  and  _315
REMARK  120  A    between atoms: _320  and  _322
REMARK  121  A    between atoms: _322  and  _323
REMARK  122  A    between atoms: _322  and  _325
REMARK  123  A    between atoms: _325  and  _326
REMARK  124  A    between atoms: _326  and  _327
REMARK  125  A    between atoms: _327  and  _329
REMARK  126  A    between atoms: _329  and  CA_431
REMARK  127  A    between atoms: _330  and  _332
REMARK  128  A    between atoms: _332  and  _333
REMARK  129  A    between atoms: _332  and  _335
REMARK  130  A    between atoms: _335  and  _336
REMARK  131  A    between atoms: _336  and  _337
REMARK  132  A    between atoms: _337  and  _338
REMARK  133  A    between atoms: _338  and  CA_431
REMARK  134  A    between atoms: _340  and  _342
REMARK  135  A    between atoms: _342  and  _343
REMARK  136  A    between atoms: _342  and  _345
REMARK  137  A    between atoms: _345  and  _346
REMARK  138  A    between atoms: _348  and  _350
REMARK  139  A    between atoms: _350  and  _351
REMARK  140  A    between atoms: _354  and  _356
REMARK  141  A    between atoms: _356  and  _357
REMARK  142  A    between atoms: _359  and  _361
REMARK  143  A    between atoms: _361  and  _362
REMARK  144  A    between atoms: _361  and  _364
REMARK  145  A    between atoms: _364  and  _365
REMARK  146  A    between atoms: _368  and  _370
REMARK  147  A    between atoms: _370  and  _371
REMARK  148  A    between atoms: _370  and  _373
REMARK  149  A    between atoms: _373  and  _374
REMARK  150  A    between atoms: _374  and  _375
REMARK  151  A    between atoms: _378  and  _380
REMARK  152  A    between atoms: _380  and  _381
REMARK  153  A    between atoms: _380  and  _383
REMARK  154  A    between atoms: _383  and  _384
REMARK  155  A    between atoms: _389  and  _390
REMARK  156  A    between atoms: _392  and  _394
REMARK  157  A    between atoms: _394  and  _395
REMARK  158  A    between atoms: _394  and  _397
REMARK  159  A    between atoms: _397  and  _398
REMARK  160  A    between atoms: _404  and  _406
REMARK  161  A    between atoms: _406  and  _407
REMARK  162  A    between atoms: _406  and  _409
REMARK  163  A    between atoms: _409  and  _410
REMARK  164  A    between atoms: _413  and  _415
REMARK  165  A    between atoms: _415  and  _416
REMARK  166  A    between atoms: _415  and  _418
REMARK  167  A    between atoms: _418  and  _419
REMARK  168  A    between atoms: _422  and  _424
REMARK  169  A    between atoms: _424  and  _425
REMARK  170  A    between atoms: _424  and  _427
REMARK  171  A    between atoms: _427  and  _428
REMARK  172  A    between atoms: _428  and  _429
REMARK                            x       y       z     vdW  Elec       q    Type
REMARK                         _______ _______ _______ _____ _____    ______ ____
ROOT
ATOM      1  O   HOH     1      26.684  45.906  69.078  0.00  0.00    +0.000 OA
ENDROOT
TORSDOF 0
REMARK  Name = ../refined-set-2016/2jke/2jke_pocket.pdb
REMARK  172 active torsions:
REMARK  status: ('A' for Active; 'I' for Inactive)
REMARK    1  A    between atoms: _1  and  _3
REMARK    2  A    between atoms: _3  and  _4
REMARK    3  A    between atoms: _3  and  _6
REMARK    4  A    between atoms: _6  and  _7
REMARK    5  A    between atoms: _7  and  _8
REMARK    6  A    between atoms: _11  and  _13
REMARK    7  A    between atoms: _13  and  _14
REMARK    8  A    between atoms: _13  and  _16
REMARK    9  A    between atoms: _16  and  _17
REMARK   10  A    between atoms: _22  and  _24
REMARK   11  A    between atoms: _24  and  _25
REMARK   12  A    between atoms: _24  and  _27
REMARK   13  A    between atoms: _27  and  _28
REMARK   14  A    between atoms: _33  and  _34
REMARK   15  A    between atoms: _36  and  _38
REMARK   16  A    between atoms: _38  and  _39
REMARK   17  A    between atoms: _38  and  _41
REMARK   18  A    between atoms: _44  and  _46
REMARK   19  A    between atoms: _46  and  _47
REMARK   20  A    between atoms: _46  and  _49
REMARK   21  A    between atoms: _49  and  _50
REMARK   22  A    between atoms: _60  and  _62
REMARK   23  A    between atoms: _62  and  _63
REMARK   24  A    between atoms: _62  and  _65
REMARK   25  A    between atoms: _65  and  _66
REMARK   26  A    between atoms: _76  and  _78
REMARK   27  A    between atoms: _78  and  _79
REMARK   28  A    between atoms: _78  and  _81
REMARK   29  A    between atoms: _81  and  _82
REMARK   30  A    between atoms: _82  and  _83
REMARK   31  A    between atoms: _85  and  _87
REMARK   32  A    between atoms: _87  and  _88
REMARK   33  A    between atoms: _87  and  _90
REMARK   34  A    between atoms: _90  and  _91
REMARK   35  A    between atoms: _94  and  _96
REMARK   36  A    between atoms: _96  and  _97
REMARK   37  A    between atoms: _96  and  _99
REMARK   38  A    between atoms: _99  and  _100
REMARK   39  A    between atoms: _110  and  _112
REMARK   40  A    between atoms: _112  and  _113
REMARK   41  A    between atoms: _112  and  _115
REMARK   42  A    between atoms: _115  and  _116
REMARK   43  A    between atoms: _119  and  _121
REMARK   44  A    between atoms: _121  and  _122
REMARK   45  A    between atoms: _121  and  _124
REMARK   46  A    between atoms: _124  and  _125
REMARK   47  A    between atoms: _125  and  _126
REMARK   48  A    between atoms: _129  and  _131
REMARK   49  A    between atoms: _131  and  _132
REMARK   50  A    between atoms: _134  and  _136
REMARK   51  A    between atoms: _136  and  _137
REMARK   52  A    between atoms: _136  and  _139
REMARK   53  A    between atoms: _139  and  _140
REMARK   54  A    between atoms: _150  and  _152
REMARK   55  A    between atoms: _152  and  _153
REMARK   56  A    between atoms: _152  and  _155
REMARK   57  A    between atoms: _155  and  _156
REMARK   58  A    between atoms: _166  and  _168
REMARK   59  A    between atoms: _168  and  _169
REMARK   60  A    between atoms: _168  and  _171
REMARK   61  A    between atoms: _171  and  _172
REMARK   62  A    between atoms: _178  and  _180
REMARK   63  A    between atoms: _180  and  _181
REMARK   64  A    between atoms: _180  and  _183
REMARK   65  A    between atoms: _183  and  _184
REMARK   66  A    between atoms: _190  and  _192
REMARK   67  A    between atoms: _192  and  _193
REMARK   68  A    between atoms: _192  and  _195
REMARK   69  A    between atoms: _195  and  _196
REMARK   70  A    between atoms: _201  and  _203
REMARK   71  A    between atoms: _203  and  _204
REMARK   72  A    between atoms: _203  and  _206
REMARK   73  A    between atoms: _206  and  _207
REMARK   74  A    between atoms: _212  and  _214
REMARK   75  A    between atoms: _214  and  _215
REMARK   76  A    between atoms: _214  and  _217
REMARK   77  A    between atoms: _217  and  _218
REMARK   78  A    between atoms: _218  and  _219
REMARK   79  A    between atoms: _222  and  _224
REMARK   80  A    between atoms: _224  and  _225
REMARK   81  A    between atoms: _224  and  _227
REMARK   82  A    between atoms: _227  and  _228
REMARK   83  A    between atoms: _231  and  _233
REMARK   84  A    between atoms: _233  and  _234
REMARK   85  A    between atoms: _233  and  _236
REMARK   86  A    between atoms: _236  and  _237
REMARK   87  A    between atoms: _239  and  _241
REMARK   88  A    between atoms: _241  and  _242
REMARK   89  A    between atoms: _241  and  _244
REMARK   90  A    between atoms: _244  and  _245
REMARK   91  A    between atoms: _245  and  _246
REMARK   92  A    between atoms: _246  and  _247
REMARK   93  A    between atoms: _247  and  _248
REMARK   94  A    between atoms: _252  and  _254
REMARK   95  A    between atoms: _254  and  _255
REMARK   96  A    between atoms: _254  and  _257
REMARK   97  A    between atoms: _257  and  _258
REMARK   98  A    between atoms: _260  and  _262
REMARK   99  A    between atoms: _262  and  _263
REMARK  100  A    between atoms: _265  and  _267
REMARK  101  A    between atoms: _267  and  _268
REMARK  102  A    between atoms: _267  and  _270
REMARK  103  A    between atoms: _270  and  _271
REMARK  104  A    between atoms: _276  and  _277
REMARK  105  A    between atoms: _279  and  _281
REMARK  106  A    between atoms: _281  and  _282
REMARK  107  A    between atoms: _281  and  _284
REMARK  108  A    between atoms: _287  and  _289
REMARK  109  A    between atoms: _289  and  _290
REMARK  110  A    between atoms: _292  and  _294
REMARK  111  A    between atoms: _294  and  _295
REMARK  112  A    between atoms: _294  and  _297
REMARK  113  A    between atoms: _297  and  _298
REMARK  114  A    between atoms: _303  and  _305
REMARK  115  A    between atoms: _305  and  _306
REMARK  116  A    between atoms: _309  and  _311
REMARK  117  A    between atoms: _311  and  _312
REMARK  118  A    between atoms: _311  and  _314
REMARK  119  A    between atoms: _314  and  _315
REMARK  120  A    between atoms: _320  and  _322
REMARK  121  A    between atoms: _322  and  _323
REMARK  122  A    between atoms: _322  and  _325
REMARK  123  A    between atoms: _325  and  _326
REMARK  124  A    between atoms: _326  and  _327
REMARK  125  A    between atoms: _327  and  _329
REMARK  126  A    between atoms: _329  and  CA_431
REMARK  127  A    between atoms: _330  and  _332
REMARK  128  A    between atoms: _332  and  _333
REMARK  129  A    between atoms: _332  and  _335
REMARK  130  A    between atoms: _335  and  _336
REMARK  131  A    between atoms: _336  and  _337
REMARK  132  A    between atoms: _337  and  _338
REMARK  133  A    between atoms: _338  and  CA_431
REMARK  134  A    between atoms: _340  and  _342
REMARK  135  A    between atoms: _342  and  _343
REMARK  136  A    between atoms: _342  and  _345
REMARK  137  A    between atoms: _345  and  _346
REMARK  138  A    between atoms: _348  and  _350
REMARK  139  A    between atoms: _350  and  _351
REMARK  140  A    between atoms: _354  and  _356
REMARK  141  A    between atoms: _356  and  _357
REMARK  142  A    between atoms: _359  and  _361
REMARK  143  A    between atoms: _361  and  _362
REMARK  144  A    between atoms: _361  and  _364
REMARK  145  A    between atoms: _364  and  _365
REMARK  146  A    between atoms: _368  and  _370
REMARK  147  A    between atoms: _370  and  _371
REMARK  148  A    between atoms: _370  and  _373
REMARK  149  A    between atoms: _373  and  _374
REMARK  150  A    between atoms: _374  and  _375
REMARK  151  A    between atoms: _378  and  _380
REMARK  152  A    between atoms: _380  and  _381
REMARK  153  A    between atoms: _380  and  _383
REMARK  154  A    between atoms: _383  and  _384
REMARK  155  A    between atoms: _389  and  _390
REMARK  156  A    between atoms: _392  and  _394
REMARK  157  A    between atoms: _394  and  _395
REMARK  158  A    between atoms: _394  and  _397
REMARK  159  A    between atoms: _397  and  _398
REMARK  160  A    between atoms: _404  and  _406
REMARK  161  A    between atoms: _406  and  _407
REMARK  162  A    between atoms: _406  and  _409
REMARK  163  A    between atoms: _409  and  _410
REMARK  164  A    between atoms: _413  and  _415
REMARK  165  A    between atoms: _415  and  _416
REMARK  166  A    between atoms: _415  and  _418
REMARK  167  A    between atoms: _418  and  _419
REMARK  168  A    between atoms: _422  and  _424
REMARK  169  A    between atoms: _424  and  _425
REMARK  170  A    between atoms: _424  and  _427
REMARK  171  A    between atoms: _427  and  _428
REMARK  172  A    between atoms: _428  and  _429
REMARK                            x       y       z     vdW  Elec       q    Type
REMARK                         _______ _______ _______ _____ _____    ______ ____
ROOT
ATOM      1  O   HOH     1      24.927  47.783  69.254  0.00  0.00    +0.000 OA
ENDROOT
TORSDOF 0
REMARK  Name = ../refined-set-2016/2jke/2jke_pocket.pdb
REMARK  172 active torsions:
REMARK  status: ('A' for Active; 'I' for Inactive)
REMARK    1  A    between atoms: _1  and  _3
REMARK    2  A    between atoms: _3  and  _4
REMARK    3  A    between atoms: _3  and  _6
REMARK    4  A    between atoms: _6  and  _7
REMARK    5  A    between atoms: _7  and  _8
REMARK    6  A    between atoms: _11  and  _13
REMARK    7  A    between atoms: _13  and  _14
REMARK    8  A    between atoms: _13  and  _16
REMARK    9  A    between atoms: _16  and  _17
REMARK   10  A    between atoms: _22  and  _24
REMARK   11  A    between atoms: _24  and  _25
REMARK   12  A    between atoms: _24  and  _27
REMARK   13  A    between atoms: _27  and  _28
REMARK   14  A    between atoms: _33  and  _34
REMARK   15  A    between atoms: _36  and  _38
REMARK   16  A    between atoms: _38  and  _39
REMARK   17  A    between atoms: _38  and  _41
REMARK   18  A    between atoms: _44  and  _46
REMARK   19  A    between atoms: _46  and  _47
REMARK   20  A    between atoms: _46  and  _49
REMARK   21  A    between atoms: _49  and  _50
REMARK   22  A    between atoms: _60  and  _62
REMARK   23  A    between atoms: _62  and  _63
REMARK   24  A    between atoms: _62  and  _65
REMARK   25  A    between atoms: _65  and  _66
REMARK   26  A    between atoms: _76  and  _78
REMARK   27  A    between atoms: _78  and  _79
REMARK   28  A    between atoms: _78  and  _81
REMARK   29  A    between atoms: _81  and  _82
REMARK   30  A    between atoms: _82  and  _83
REMARK   31  A    between atoms: _85  and  _87
REMARK   32  A    between atoms: _87  and  _88
REMARK   33  A    between atoms: _87  and  _90
REMARK   34  A    between atoms: _90  and  _91
REMARK   35  A    between atoms: _94  and  _96
REMARK   36  A    between atoms: _96  and  _97
REMARK   37  A    between atoms: _96  and  _99
REMARK   38  A    between atoms: _99  and  _100
REMARK   39  A    between atoms: _110  and  _112
REMARK   40  A    between atoms: _112  and  _113
REMARK   41  A    between atoms: _112  and  _115
REMARK   42  A    between atoms: _115  and  _116
REMARK   43  A    between atoms: _119  and  _121
REMARK   44  A    between atoms: _121  and  _122
REMARK   45  A    between atoms: _121  and  _124
REMARK   46  A    between atoms: _124  and  _125
REMARK   47  A    between atoms: _125  and  _126
REMARK   48  A    between atoms: _129  and  _131
REMARK   49  A    between atoms: _131  and  _132
REMARK   50  A    between atoms: _134  and  _136
REMARK   51  A    between atoms: _136  and  _137
REMARK   52  A    between atoms: _136  and  _139
REMARK   53  A    between atoms: _139  and  _140
REMARK   54  A    between atoms: _150  and  _152
REMARK   55  A    between atoms: _152  and  _153
REMARK   56  A    between atoms: _152  and  _155
REMARK   57  A    between atoms: _155  and  _156
REMARK   58  A    between atoms: _166  and  _168
REMARK   59  A    between atoms: _168  and  _169
REMARK   60  A    between atoms: _168  and  _171
REMARK   61  A    between atoms: _171  and  _172
REMARK   62  A    between atoms: _178  and  _180
REMARK   63  A    between atoms: _180  and  _181
REMARK   64  A    between atoms: _180  and  _183
REMARK   65  A    between atoms: _183  and  _184
REMARK   66  A    between atoms: _190  and  _192
REMARK   67  A    between atoms: _192  and  _193
REMARK   68  A    between atoms: _192  and  _195
REMARK   69  A    between atoms: _195  and  _196
REMARK   70  A    between atoms: _201  and  _203
REMARK   71  A    between atoms: _203  and  _204
REMARK   72  A    between atoms: _203  and  _206
REMARK   73  A    between atoms: _206  and  _207
REMARK   74  A    between atoms: _212  and  _214
REMARK   75  A    between atoms: _214  and  _215
REMARK   76  A    between atoms: _214  and  _217
REMARK   77  A    between atoms: _217  and  _218
REMARK   78  A    between atoms: _218  and  _219
REMARK   79  A    between atoms: _222  and  _224
REMARK   80  A    between atoms: _224  and  _225
REMARK   81  A    between atoms: _224  and  _227
REMARK   82  A    between atoms: _227  and  _228
REMARK   83  A    between atoms: _231  and  _233
REMARK   84  A    between atoms: _233  and  _234
REMARK   85  A    between atoms: _233  and  _236
REMARK   86  A    between atoms: _236  and  _237
REMARK   87  A    between atoms: _239  and  _241
REMARK   88  A    between atoms: _241  and  _242
REMARK   89  A    between atoms: _241  and  _244
REMARK   90  A    between atoms: _244  and  _245
REMARK   91  A    between atoms: _245  and  _246
REMARK   92  A    between atoms: _246  and  _247
REMARK   93  A    between atoms: _247  and  _248
REMARK   94  A    between atoms: _252  and  _254
REMARK   95  A    between atoms: _254  and  _255
REMARK   96  A    between atoms: _254  and  _257
REMARK   97  A    between atoms: _257  and  _258
REMARK   98  A    between atoms: _260  and  _262
REMARK   99  A    between atoms: _262  and  _263
REMARK  100  A    between atoms: _265  and  _267
REMARK  101  A    between atoms: _267  and  _268
REMARK  102  A    between atoms: _267  and  _270
REMARK  103  A    between atoms: _270  and  _271
REMARK  104  A    between atoms: _276  and  _277
REMARK  105  A    between atoms: _279  and  _281
REMARK  106  A    between atoms: _281  and  _282
REMARK  107  A    between atoms: _281  and  _284
REMARK  108  A    between atoms: _287  and  _289
REMARK  109  A    between atoms: _289  and  _290
REMARK  110  A    between atoms: _292  and  _294
REMARK  111  A    between atoms: _294  and  _295
REMARK  112  A    between atoms: _294  and  _297
REMARK  113  A    between atoms: _297  and  _298
REMARK  114  A    between atoms: _303  and  _305
REMARK  115  A    between atoms: _305  and  _306
REMARK  116  A    between atoms: _309  and  _311
REMARK  117  A    between atoms: _311  and  _312
REMARK  118  A    between atoms: _311  and  _314
REMARK  119  A    between atoms: _314  and  _315
REMARK  120  A    between atoms: _320  and  _322
REMARK  121  A    between atoms: _322  and  _323
REMARK  122  A    between atoms: _322  and  _325
REMARK  123  A    between atoms: _325  and  _326
REMARK  124  A    between atoms: _326  and  _327
REMARK  125  A    between atoms: _327  and  _329
REMARK  126  A    between atoms: _329  and  CA_431
REMARK  127  A    between atoms: _330  and  _332
REMARK  128  A    between atoms: _332  and  _333
REMARK  129  A    between atoms: _332  and  _335
REMARK  130  A    between atoms: _335  and  _336
REMARK  131  A    between atoms: _336  and  _337
REMARK  132  A    between atoms: _337  and  _338
REMARK  133  A    between atoms: _338  and  CA_431
REMARK  134  A    between atoms: _340  and  _342
REMARK  135  A    between atoms: _342  and  _343
REMARK  136  A    between atoms: _342  and  _345
REMARK  137  A    between atoms: _345  and  _346
REMARK  138  A    between atoms: _348  and  _350
REMARK  139  A    between atoms: _350  and  _351
REMARK  140  A    between atoms: _354  and  _356
REMARK  141  A    between atoms: _356  and  _357
REMARK  142  A    between atoms: _359  and  _361
REMARK  143  A    between atoms: _361  and  _362
REMARK  144  A    between atoms: _361  and  _364
REMARK  145  A    between atoms: _364  and  _365
REMARK  146  A    between atoms: _368  and  _370
REMARK  147  A    between atoms: _370  and  _371
REMARK  148  A    between atoms: _370  and  _373
REMARK  149  A    between atoms: _373  and  _374
REMARK  150  A    between atoms: _374  and  _375
REMARK  151  A    between atoms: _378  and  _380
REMARK  152  A    between atoms: _380  and  _381
REMARK  153  A    between atoms: _380  and  _383
REMARK  154  A    between atoms: _383  and  _384
REMARK  155  A    between atoms: _389  and  _390
REMARK  156  A    between atoms: _392  and  _394
REMARK  157  A    between atoms: _394  and  _395
REMARK  158  A    between atoms: _394  and  _397
REMARK  159  A    between atoms: _397  and  _398
REMARK  160  A    between atoms: _404  and  _406
REMARK  161  A    between atoms: _406  and  _407
REMARK  162  A    between atoms: _406  and  _409
REMARK  163  A    between atoms: _409  and  _410
REMARK  164  A    between atoms: _413  and  _415
REMARK  165  A    between atoms: _415  and  _416
REMARK  166  A    between atoms: _415  and  _418
REMARK  167  A    between atoms: _418  and  _419
REMARK  168  A    between atoms: _422  and  _424
REMARK  169  A    between atoms: _424  and  _425
REMARK  170  A    between atoms: _424  and  _427
REMARK  171  A    between atoms: _427  and  _428
REMARK  172  A    between atoms: _428  and  _429
REMARK                            x       y       z     vdW  Elec       q    Type
REMARK                         _______ _______ _______ _____ _____    ______ ____
ROOT
ATOM      1  O   HOH     1      21.541  43.445  76.483  0.00  0.00    +0.000 OA
ENDROOT
TORSDOF 0
REMARK  Name = ../refined-set-2016/2jke/2jke_pocket.pdb
REMARK  172 active torsions:
REMARK  status: ('A' for Active; 'I' for Inactive)
REMARK    1  A    between atoms: _1  and  _3
REMARK    2  A    between atoms: _3  and  _4
REMARK    3  A    between atoms: _3  and  _6
REMARK    4  A    between atoms: _6  and  _7
REMARK    5  A    between atoms: _7  and  _8
REMARK    6  A    between atoms: _11  and  _13
REMARK    7  A    between atoms: _13  and  _14
REMARK    8  A    between atoms: _13  and  _16
REMARK    9  A    between atoms: _16  and  _17
REMARK   10  A    between atoms: _22  and  _24
REMARK   11  A    between atoms: _24  and  _25
REMARK   12  A    between atoms: _24  and  _27
REMARK   13  A    between atoms: _27  and  _28
REMARK   14  A    between atoms: _33  and  _34
REMARK   15  A    between atoms: _36  and  _38
REMARK   16  A    between atoms: _38  and  _39
REMARK   17  A    between atoms: _38  and  _41
REMARK   18  A    between atoms: _44  and  _46
REMARK   19  A    between atoms: _46  and  _47
REMARK   20  A    between atoms: _46  and  _49
REMARK   21  A    between atoms: _49  and  _50
REMARK   22  A    between atoms: _60  and  _62
REMARK   23  A    between atoms: _62  and  _63
REMARK   24  A    between atoms: _62  and  _65
REMARK   25  A    between atoms: _65  and  _66
REMARK   26  A    between atoms: _76  and  _78
REMARK   27  A    between atoms: _78  and  _79
REMARK   28  A    between atoms: _78  and  _81
REMARK   29  A    between atoms: _81  and  _82
REMARK   30  A    between atoms: _82  and  _83
REMARK   31  A    between atoms: _85  and  _87
REMARK   32  A    between atoms: _87  and  _88
REMARK   33  A    between atoms: _87  and  _90
REMARK   34  A    between atoms: _90  and  _91
REMARK   35  A    between atoms: _94  and  _96
REMARK   36  A    between atoms: _96  and  _97
REMARK   37  A    between atoms: _96  and  _99
REMARK   38  A    between atoms: _99  and  _100
REMARK   39  A    between atoms: _110  and  _112
REMARK   40  A    between atoms: _112  and  _113
REMARK   41  A    between atoms: _112  and  _115
REMARK   42  A    between atoms: _115  and  _116
REMARK   43  A    between atoms: _119  and  _121
REMARK   44  A    between atoms: _121  and  _122
REMARK   45  A    between atoms: _121  and  _124
REMARK   46  A    between atoms: _124  and  _125
REMARK   47  A    between atoms: _125  and  _126
REMARK   48  A    between atoms: _129  and  _131
REMARK   49  A    between atoms: _131  and  _132
REMARK   50  A    between atoms: _134  and  _136
REMARK   51  A    between atoms: _136  and  _137
REMARK   52  A    between atoms: _136  and  _139
REMARK   53  A    between atoms: _139  and  _140
REMARK   54  A    between atoms: _150  and  _152
REMARK   55  A    between atoms: _152  and  _153
REMARK   56  A    between atoms: _152  and  _155
REMARK   57  A    between atoms: _155  and  _156
REMARK   58  A    between atoms: _166  and  _168
REMARK   59  A    between atoms: _168  and  _169
REMARK   60  A    between atoms: _168  and  _171
REMARK   61  A    between atoms: _171  and  _172
REMARK   62  A    between atoms: _178  and  _180
REMARK   63  A    between atoms: _180  and  _181
REMARK   64  A    between atoms: _180  and  _183
REMARK   65  A    between atoms: _183  and  _184
REMARK   66  A    between atoms: _190  and  _192
REMARK   67  A    between atoms: _192  and  _193
REMARK   68  A    between atoms: _192  and  _195
REMARK   69  A    between atoms: _195  and  _196
REMARK   70  A    between atoms: _201  and  _203
REMARK   71  A    between atoms: _203  and  _204
REMARK   72  A    between atoms: _203  and  _206
REMARK   73  A    between atoms: _206  and  _207
REMARK   74  A    between atoms: _212  and  _214
REMARK   75  A    between atoms: _214  and  _215
REMARK   76  A    between atoms: _214  and  _217
REMARK   77  A    between atoms: _217  and  _218
REMARK   78  A    between atoms: _218  and  _219
REMARK   79  A    between atoms: _222  and  _224
REMARK   80  A    between atoms: _224  and  _225
REMARK   81  A    between atoms: _224  and  _227
REMARK   82  A    between atoms: _227  and  _228
REMARK   83  A    between atoms: _231  and  _233
REMARK   84  A    between atoms: _233  and  _234
REMARK   85  A    between atoms: _233  and  _236
REMARK   86  A    between atoms: _236  and  _237
REMARK   87  A    between atoms: _239  and  _241
REMARK   88  A    between atoms: _241  and  _242
REMARK   89  A    between atoms: _241  and  _244
REMARK   90  A    between atoms: _244  and  _245
REMARK   91  A    between atoms: _245  and  _246
REMARK   92  A    between atoms: _246  and  _247
REMARK   93  A    between atoms: _247  and  _248
REMARK   94  A    between atoms: _252  and  _254
REMARK   95  A    between atoms: _254  and  _255
REMARK   96  A    between atoms: _254  and  _257
REMARK   97  A    between atoms: _257  and  _258
REMARK   98  A    between atoms: _260  and  _262
REMARK   99  A    between atoms: _262  and  _263
REMARK  100  A    between atoms: _265  and  _267
REMARK  101  A    between atoms: _267  and  _268
REMARK  102  A    between atoms: _267  and  _270
REMARK  103  A    between atoms: _270  and  _271
REMARK  104  A    between atoms: _276  and  _277
REMARK  105  A    between atoms: _279  and  _281
REMARK  106  A    between atoms: _281  and  _282
REMARK  107  A    between atoms: _281  and  _284
REMARK  108  A    between atoms: _287  and  _289
REMARK  109  A    between atoms: _289  and  _290
REMARK  110  A    between atoms: _292  and  _294
REMARK  111  A    between atoms: _294  and  _295
REMARK  112  A    between atoms: _294  and  _297
REMARK  113  A    between atoms: _297  and  _298
REMARK  114  A    between atoms: _303  and  _305
REMARK  115  A    between atoms: _305  and  _306
REMARK  116  A    between atoms: _309  and  _311
REMARK  117  A    between atoms: _311  and  _312
REMARK  118  A    between atoms: _311  and  _314
REMARK  119  A    between atoms: _314  and  _315
REMARK  120  A    between atoms: _320  and  _322
REMARK  121  A    between atoms: _322  and  _323
REMARK  122  A    between atoms: _322  and  _325
REMARK  123  A    between atoms: _325  and  _326
REMARK  124  A    between atoms: _326  and  _327
REMARK  125  A    between atoms: _327  and  _329
REMARK  126  A    between atoms: _329  and  CA_431
REMARK  127  A    between atoms: _330  and  _332
REMARK  128  A    between atoms: _332  and  _333
REMARK  129  A    between atoms: _332  and  _335
REMARK  130  A    between atoms: _335  and  _336
REMARK  131  A    between atoms: _336  and  _337
REMARK  132  A    between atoms: _337  and  _338
REMARK  133  A    between atoms: _338  and  CA_431
REMARK  134  A    between atoms: _340  and  _342
REMARK  135  A    between atoms: _342  and  _343
REMARK  136  A    between atoms: _342  and  _345
REMARK  137  A    between atoms: _345  and  _346
REMARK  138  A    between atoms: _348  and  _350
REMARK  139  A    between atoms: _350  and  _351
REMARK  140  A    between atoms: _354  and  _356
REMARK  141  A    between atoms: _356  and  _357
REMARK  142  A    between atoms: _359  and  _361
REMARK  143  A    between atoms: _361  and  _362
REMARK  144  A    between atoms: _361  and  _364
REMARK  145  A    between atoms: _364  and  _365
REMARK  146  A    between atoms: _368  and  _370
REMARK  147  A    between atoms: _370  and  _371
REMARK  148  A    between atoms: _370  and  _373
REMARK  149  A    between atoms: _373  and  _374
REMARK  150  A    between atoms: _374  and  _375
REMARK  151  A    between atoms: _378  and  _380
REMARK  152  A    between atoms: _380  and  _381
REMARK  153  A    between atoms: _380  and  _383
REMARK  154  A    between atoms: _383  and  _384
REMARK  155  A    between atoms: _389  and  _390
REMARK  156  A    between atoms: _392  and  _394
REMARK  157  A    between atoms: _394  and  _395
REMARK  158  A    between atoms: _394  and  _397
REMARK  159  A    between atoms: _397  and  _398
REMARK  160  A    between atoms: _404  and  _406
REMARK  161  A    between atoms: _406  and  _407
REMARK  162  A    between atoms: _406  and  _409
REMARK  163  A    between atoms: _409  and  _410
REMARK  164  A    between atoms: _413  and  _415
REMARK  165  A    between atoms: _415  and  _416
REMARK  166  A    between atoms: _415  and  _418
REMARK  167  A    between atoms: _418  and  _419
REMARK  168  A    between atoms: _422  and  _424
REMARK  169  A    between atoms: _424  and  _425
REMARK  170  A    between atoms: _424  and  _427
REMARK  171  A    between atoms: _427  and  _428
REMARK  172  A    between atoms: _428  and  _429
REMARK                            x       y       z     vdW  Elec       q    Type
REMARK                         _______ _______ _______ _____ _____    ______ ____
ROOT
ATOM      1  O   HOH     1      23.425  38.163  74.097  0.00  0.00    +0.000 OA
ENDROOT
TORSDOF 0
REMARK  Name = ../refined-set-2016/2jke/2jke_pocket.pdb
REMARK  172 active torsions:
REMARK  status: ('A' for Active; 'I' for Inactive)
REMARK    1  A    between atoms: _1  and  _3
REMARK    2  A    between atoms: _3  and  _4
REMARK    3  A    between atoms: _3  and  _6
REMARK    4  A    between atoms: _6  and  _7
REMARK    5  A    between atoms: _7  and  _8
REMARK    6  A    between atoms: _11  and  _13
REMARK    7  A    between atoms: _13  and  _14
REMARK    8  A    between atoms: _13  and  _16
REMARK    9  A    between atoms: _16  and  _17
REMARK   10  A    between atoms: _22  and  _24
REMARK   11  A    between atoms: _24  and  _25
REMARK   12  A    between atoms: _24  and  _27
REMARK   13  A    between atoms: _27  and  _28
REMARK   14  A    between atoms: _33  and  _34
REMARK   15  A    between atoms: _36  and  _38
REMARK   16  A    between atoms: _38  and  _39
REMARK   17  A    between atoms: _38  and  _41
REMARK   18  A    between atoms: _44  and  _46
REMARK   19  A    between atoms: _46  and  _47
REMARK   20  A    between atoms: _46  and  _49
REMARK   21  A    between atoms: _49  and  _50
REMARK   22  A    between atoms: _60  and  _62
REMARK   23  A    between atoms: _62  and  _63
REMARK   24  A    between atoms: _62  and  _65
REMARK   25  A    between atoms: _65  and  _66
REMARK   26  A    between atoms: _76  and  _78
REMARK   27  A    between atoms: _78  and  _79
REMARK   28  A    between atoms: _78  and  _81
REMARK   29  A    between atoms: _81  and  _82
REMARK   30  A    between atoms: _82  and  _83
REMARK   31  A    between atoms: _85  and  _87
REMARK   32  A    between atoms: _87  and  _88
REMARK   33  A    between atoms: _87  and  _90
REMARK   34  A    between atoms: _90  and  _91
REMARK   35  A    between atoms: _94  and  _96
REMARK   36  A    between atoms: _96  and  _97
REMARK   37  A    between atoms: _96  and  _99
REMARK   38  A    between atoms: _99  and  _100
REMARK   39  A    between atoms: _110  and  _112
REMARK   40  A    between atoms: _112  and  _113
REMARK   41  A    between atoms: _112  and  _115
REMARK   42  A    between atoms: _115  and  _116
REMARK   43  A    between atoms: _119  and  _121
REMARK   44  A    between atoms: _121  and  _122
REMARK   45  A    between atoms: _121  and  _124
REMARK   46  A    between atoms: _124  and  _125
REMARK   47  A    between atoms: _125  and  _126
REMARK   48  A    between atoms: _129  and  _131
REMARK   49  A    between atoms: _131  and  _132
REMARK   50  A    between atoms: _134  and  _136
REMARK   51  A    between atoms: _136  and  _137
REMARK   52  A    between atoms: _136  and  _139
REMARK   53  A    between atoms: _139  and  _140
REMARK   54  A    between atoms: _150  and  _152
REMARK   55  A    between atoms: _152  and  _153
REMARK   56  A    between atoms: _152  and  _155
REMARK   57  A    between atoms: _155  and  _156
REMARK   58  A    between atoms: _166  and  _168
REMARK   59  A    between atoms: _168  and  _169
REMARK   60  A    between atoms: _168  and  _171
REMARK   61  A    between atoms: _171  and  _172
REMARK   62  A    between atoms: _178  and  _180
REMARK   63  A    between atoms: _180  and  _181
REMARK   64  A    between atoms: _180  and  _183
REMARK   65  A    between atoms: _183  and  _184
REMARK   66  A    between atoms: _190  and  _192
REMARK   67  A    between atoms: _192  and  _193
REMARK   68  A    between atoms: _192  and  _195
REMARK   69  A    between atoms: _195  and  _196
REMARK   70  A    between atoms: _201  and  _203
REMARK   71  A    between atoms: _203  and  _204
REMARK   72  A    between atoms: _203  and  _206
REMARK   73  A    between atoms: _206  and  _207
REMARK   74  A    between atoms: _212  and  _214
REMARK   75  A    between atoms: _214  and  _215
REMARK   76  A    between atoms: _214  and  _217
REMARK   77  A    between atoms: _217  and  _218
REMARK   78  A    between atoms: _218  and  _219
REMARK   79  A    between atoms: _222  and  _224
REMARK   80  A    between atoms: _224  and  _225
REMARK   81  A    between atoms: _224  and  _227
REMARK   82  A    between atoms: _227  and  _228
REMARK   83  A    between atoms: _231  and  _233
REMARK   84  A    between atoms: _233  and  _234
REMARK   85  A    between atoms: _233  and  _236
REMARK   86  A    between atoms: _236  and  _237
REMARK   87  A    between atoms: _239  and  _241
REMARK   88  A    between atoms: _241  and  _242
REMARK   89  A    between atoms: _241  and  _244
REMARK   90  A    between atoms: _244  and  _245
REMARK   91  A    between atoms: _245  and  _246
REMARK   92  A    between atoms: _246  and  _247
REMARK   93  A    between atoms: _247  and  _248
REMARK   94  A    between atoms: _252  and  _254
REMARK   95  A    between atoms: _254  and  _255
REMARK   96  A    between atoms: _254  and  _257
REMARK   97  A    between atoms: _257  and  _258
REMARK   98  A    between atoms: _260  and  _262
REMARK   99  A    between atoms: _262  and  _263
REMARK  100  A    between atoms: _265  and  _267
REMARK  101  A    between atoms: _267  and  _268
REMARK  102  A    between atoms: _267  and  _270
REMARK  103  A    between atoms: _270  and  _271
REMARK  104  A    between atoms: _276  and  _277
REMARK  105  A    between atoms: _279  and  _281
REMARK  106  A    between atoms: _281  and  _282
REMARK  107  A    between atoms: _281  and  _284
REMARK  108  A    between atoms: _287  and  _289
REMARK  109  A    between atoms: _289  and  _290
REMARK  110  A    between atoms: _292  and  _294
REMARK  111  A    between atoms: _294  and  _295
REMARK  112  A    between atoms: _294  and  _297
REMARK  113  A    between atoms: _297  and  _298
REMARK  114  A    between atoms: _303  and  _305
REMARK  115  A    between atoms: _305  and  _306
REMARK  116  A    between atoms: _309  and  _311
REMARK  117  A    between atoms: _311  and  _312
REMARK  118  A    between atoms: _311  and  _314
REMARK  119  A    between atoms: _314  and  _315
REMARK  120  A    between atoms: _320  and  _322
REMARK  121  A    between atoms: _322  and  _323
REMARK  122  A    between atoms: _322  and  _325
REMARK  123  A    between atoms: _325  and  _326
REMARK  124  A    between atoms: _326  and  _327
REMARK  125  A    between atoms: _327  and  _329
REMARK  126  A    between atoms: _329  and  CA_431
REMARK  127  A    between atoms: _330  and  _332
REMARK  128  A    between atoms: _332  and  _333
REMARK  129  A    between atoms: _332  and  _335
REMARK  130  A    between atoms: _335  and  _336
REMARK  131  A    between atoms: _336  and  _337
REMARK  132  A    between atoms: _337  and  _338
REMARK  133  A    between atoms: _338  and  CA_431
REMARK  134  A    between atoms: _340  and  _342
REMARK  135  A    between atoms: _342  and  _343
REMARK  136  A    between atoms: _342  and  _345
REMARK  137  A    between atoms: _345  and  _346
REMARK  138  A    between atoms: _348  and  _350
REMARK  139  A    between atoms: _350  and  _351
REMARK  140  A    between atoms: _354  and  _356
REMARK  141  A    between atoms: _356  and  _357
REMARK  142  A    between atoms: _359  and  _361
REMARK  143  A    between atoms: _361  and  _362
REMARK  144  A    between atoms: _361  and  _364
REMARK  145  A    between atoms: _364  and  _365
REMARK  146  A    between atoms: _368  and  _370
REMARK  147  A    between atoms: _370  and  _371
REMARK  148  A    between atoms: _370  and  _373
REMARK  149  A    between atoms: _373  and  _374
REMARK  150  A    between atoms: _374  and  _375
REMARK  151  A    between atoms: _378  and  _380
REMARK  152  A    between atoms: _380  and  _381
REMARK  153  A    between atoms: _380  and  _383
REMARK  154  A    between atoms: _383  and  _384
REMARK  155  A    between atoms: _389  and  _390
REMARK  156  A    between atoms: _392  and  _394
REMARK  157  A    between atoms: _394  and  _395
REMARK  158  A    between atoms: _394  and  _397
REMARK  159  A    between atoms: _397  and  _398
REMARK  160  A    between atoms: _404  and  _406
REMARK  161  A    between atoms: _406  and  _407
REMARK  162  A    between atoms: _406  and  _409
REMARK  163  A    between atoms: _409  and  _410
REMARK  164  A    between atoms: _413  and  _415
REMARK  165  A    between atoms: _415  and  _416
REMARK  166  A    between atoms: _415  and  _418
REMARK  167  A    between atoms: _418  and  _419
REMARK  168  A    between atoms: _422  and  _424
REMARK  169  A    between atoms: _424  and  _425
REMARK  170  A    between atoms: _424  and  _427
REMARK  171  A    between atoms: _427  and  _428
REMARK  172  A    between atoms: _428  and  _429
REMARK                            x       y       z     vdW  Elec       q    Type
REMARK                         _______ _______ _______ _____ _____    ______ ____
ROOT
ATOM      1  O   HOH     1      24.243  43.352  76.275  0.00  0.00    +0.000 OA
ENDROOT
TORSDOF 0
REMARK  Name = ../refined-set-2016/2jke/2jke_pocket.pdb
REMARK  172 active torsions:
REMARK  status: ('A' for Active; 'I' for Inactive)
REMARK    1  A    between atoms: _1  and  _3
REMARK    2  A    between atoms: _3  and  _4
REMARK    3  A    between atoms: _3  and  _6
REMARK    4  A    between atoms: _6  and  _7
REMARK    5  A    between atoms: _7  and  _8
REMARK    6  A    between atoms: _11  and  _13
REMARK    7  A    between atoms: _13  and  _14
REMARK    8  A    between atoms: _13  and  _16
REMARK    9  A    between atoms: _16  and  _17
REMARK   10  A    between atoms: _22  and  _24
REMARK   11  A    between atoms: _24  and  _25
REMARK   12  A    between atoms: _24  and  _27
REMARK   13  A    between atoms: _27  and  _28
REMARK   14  A    between atoms: _33  and  _34
REMARK   15  A    between atoms: _36  and  _38
REMARK   16  A    between atoms: _38  and  _39
REMARK   17  A    between atoms: _38  and  _41
REMARK   18  A    between atoms: _44  and  _46
REMARK   19  A    between atoms: _46  and  _47
REMARK   20  A    between atoms: _46  and  _49
REMARK   21  A    between atoms: _49  and  _50
REMARK   22  A    between atoms: _60  and  _62
REMARK   23  A    between atoms: _62  and  _63
REMARK   24  A    between atoms: _62  and  _65
REMARK   25  A    between atoms: _65  and  _66
REMARK   26  A    between atoms: _76  and  _78
REMARK   27  A    between atoms: _78  and  _79
REMARK   28  A    between atoms: _78  and  _81
REMARK   29  A    between atoms: _81  and  _82
REMARK   30  A    between atoms: _82  and  _83
REMARK   31  A    between atoms: _85  and  _87
REMARK   32  A    between atoms: _87  and  _88
REMARK   33  A    between atoms: _87  and  _90
REMARK   34  A    between atoms: _90  and  _91
REMARK   35  A    between atoms: _94  and  _96
REMARK   36  A    between atoms: _96  and  _97
REMARK   37  A    between atoms: _96  and  _99
REMARK   38  A    between atoms: _99  and  _100
REMARK   39  A    between atoms: _110  and  _112
REMARK   40  A    between atoms: _112  and  _113
REMARK   41  A    between atoms: _112  and  _115
REMARK   42  A    between atoms: _115  and  _116
REMARK   43  A    between atoms: _119  and  _121
REMARK   44  A    between atoms: _121  and  _122
REMARK   45  A    between atoms: _121  and  _124
REMARK   46  A    between atoms: _124  and  _125
REMARK   47  A    between atoms: _125  and  _126
REMARK   48  A    between atoms: _129  and  _131
REMARK   49  A    between atoms: _131  and  _132
REMARK   50  A    between atoms: _134  and  _136
REMARK   51  A    between atoms: _136  and  _137
REMARK   52  A    between atoms: _136  and  _139
REMARK   53  A    between atoms: _139  and  _140
REMARK   54  A    between atoms: _150  and  _152
REMARK   55  A    between atoms: _152  and  _153
REMARK   56  A    between atoms: _152  and  _155
REMARK   57  A    between atoms: _155  and  _156
REMARK   58  A    between atoms: _166  and  _168
REMARK   59  A    between atoms: _168  and  _169
REMARK   60  A    between atoms: _168  and  _171
REMARK   61  A    between atoms: _171  and  _172
REMARK   62  A    between atoms: _178  and  _180
REMARK   63  A    between atoms: _180  and  _181
REMARK   64  A    between atoms: _180  and  _183
REMARK   65  A    between atoms: _183  and  _184
REMARK   66  A    between atoms: _190  and  _192
REMARK   67  A    between atoms: _192  and  _193
REMARK   68  A    between atoms: _192  and  _195
REMARK   69  A    between atoms: _195  and  _196
REMARK   70  A    between atoms: _201  and  _203
REMARK   71  A    between atoms: _203  and  _204
REMARK   72  A    between atoms: _203  and  _206
REMARK   73  A    between atoms: _206  and  _207
REMARK   74  A    between atoms: _212  and  _214
REMARK   75  A    between atoms: _214  and  _215
REMARK   76  A    between atoms: _214  and  _217
REMARK   77  A    between atoms: _217  and  _218
REMARK   78  A    between atoms: _218  and  _219
REMARK   79  A    between atoms: _222  and  _224
REMARK   80  A    between atoms: _224  and  _225
REMARK   81  A    between atoms: _224  and  _227
REMARK   82  A    between atoms: _227  and  _228
REMARK   83  A    between atoms: _231  and  _233
REMARK   84  A    between atoms: _233  and  _234
REMARK   85  A    between atoms: _233  and  _236
REMARK   86  A    between atoms: _236  and  _237
REMARK   87  A    between atoms: _239  and  _241
REMARK   88  A    between atoms: _241  and  _242
REMARK   89  A    between atoms: _241  and  _244
REMARK   90  A    between atoms: _244  and  _245
REMARK   91  A    between atoms: _245  and  _246
REMARK   92  A    between atoms: _246  and  _247
REMARK   93  A    between atoms: _247  and  _248
REMARK   94  A    between atoms: _252  and  _254
REMARK   95  A    between atoms: _254  and  _255
REMARK   96  A    between atoms: _254  and  _257
REMARK   97  A    between atoms: _257  and  _258
REMARK   98  A    between atoms: _260  and  _262
REMARK   99  A    between atoms: _262  and  _263
REMARK  100  A    between atoms: _265  and  _267
REMARK  101  A    between atoms: _267  and  _268
REMARK  102  A    between atoms: _267  and  _270
REMARK  103  A    between atoms: _270  and  _271
REMARK  104  A    between atoms: _276  and  _277
REMARK  105  A    between atoms: _279  and  _281
REMARK  106  A    between atoms: _281  and  _282
REMARK  107  A    between atoms: _281  and  _284
REMARK  108  A    between atoms: _287  and  _289
REMARK  109  A    between atoms: _289  and  _290
REMARK  110  A    between atoms: _292  and  _294
REMARK  111  A    between atoms: _294  and  _295
REMARK  112  A    between atoms: _294  and  _297
REMARK  113  A    between atoms: _297  and  _298
REMARK  114  A    between atoms: _303  and  _305
REMARK  115  A    between atoms: _305  and  _306
REMARK  116  A    between atoms: _309  and  _311
REMARK  117  A    between atoms: _311  and  _312
REMARK  118  A    between atoms: _311  and  _314
REMARK  119  A    between atoms: _314  and  _315
REMARK  120  A    between atoms: _320  and  _322
REMARK  121  A    between atoms: _322  and  _323
REMARK  122  A    between atoms: _322  and  _325
REMARK  123  A    between atoms: _325  and  _326
REMARK  124  A    between atoms: _326  and  _327
REMARK  125  A    between atoms: _327  and  _329
REMARK  126  A    between atoms: _329  and  CA_431
REMARK  127  A    between atoms: _330  and  _332
REMARK  128  A    between atoms: _332  and  _333
REMARK  129  A    between atoms: _332  and  _335
REMARK  130  A    between atoms: _335  and  _336
REMARK  131  A    between atoms: _336  and  _337
REMARK  132  A    between atoms: _337  and  _338
REMARK  133  A    between atoms: _338  and  CA_431
REMARK  134  A    between atoms: _340  and  _342
REMARK  135  A    between atoms: _342  and  _343
REMARK  136  A    between atoms: _342  and  _345
REMARK  137  A    between atoms: _345  and  _346
REMARK  138  A    between atoms: _348  and  _350
REMARK  139  A    between atoms: _350  and  _351
REMARK  140  A    between atoms: _354  and  _356
REMARK  141  A    between atoms: _356  and  _357
REMARK  142  A    between atoms: _359  and  _361
REMARK  143  A    between atoms: _361  and  _362
REMARK  144  A    between atoms: _361  and  _364
REMARK  145  A    between atoms: _364  and  _365
REMARK  146  A    between atoms: _368  and  _370
REMARK  147  A    between atoms: _370  and  _371
REMARK  148  A    between atoms: _370  and  _373
REMARK  149  A    between atoms: _373  and  _374
REMARK  150  A    between atoms: _374  and  _375
REMARK  151  A    between atoms: _378  and  _380
REMARK  152  A    between atoms: _380  and  _381
REMARK  153  A    between atoms: _380  and  _383
REMARK  154  A    between atoms: _383  and  _384
REMARK  155  A    between atoms: _389  and  _390
REMARK  156  A    between atoms: _392  and  _394
REMARK  157  A    between atoms: _394  and  _395
REMARK  158  A    between atoms: _394  and  _397
REMARK  159  A    between atoms: _397  and  _398
REMARK  160  A    between atoms: _404  and  _406
REMARK  161  A    between atoms: _406  and  _407
REMARK  162  A    between atoms: _406  and  _409
REMARK  163  A    between atoms: _409  and  _410
REMARK  164  A    between atoms: _413  and  _415
REMARK  165  A    between atoms: _415  and  _416
REMARK  166  A    between atoms: _415  and  _418
REMARK  167  A    between atoms: _418  and  _419
REMARK  168  A    between atoms: _422  and  _424
REMARK  169  A    between atoms: _424  and  _425
REMARK  170  A    between atoms: _424  and  _427
REMARK  171  A    between atoms: _427  and  _428
REMARK  172  A    between atoms: _428  and  _429
REMARK                            x       y       z     vdW  Elec       q    Type
REMARK                         _______ _______ _______ _____ _____    ______ ____
ROOT
ATOM      1  O   HOH     1      25.454  46.017  66.827  0.00  0.00    +0.000 OA
ENDROOT
TORSDOF 0
REMARK  Name = ../refined-set-2016/2jke/2jke_pocket.pdb
REMARK  172 active torsions:
REMARK  status: ('A' for Active; 'I' for Inactive)
REMARK    1  A    between atoms: _1  and  _3
REMARK    2  A    between atoms: _3  and  _4
REMARK    3  A    between atoms: _3  and  _6
REMARK    4  A    between atoms: _6  and  _7
REMARK    5  A    between atoms: _7  and  _8
REMARK    6  A    between atoms: _11  and  _13
REMARK    7  A    between atoms: _13  and  _14
REMARK    8  A    between atoms: _13  and  _16
REMARK    9  A    between atoms: _16  and  _17
REMARK   10  A    between atoms: _22  and  _24
REMARK   11  A    between atoms: _24  and  _25
REMARK   12  A    between atoms: _24  and  _27
REMARK   13  A    between atoms: _27  and  _28
REMARK   14  A    between atoms: _33  and  _34
REMARK   15  A    between atoms: _36  and  _38
REMARK   16  A    between atoms: _38  and  _39
REMARK   17  A    between atoms: _38  and  _41
REMARK   18  A    between atoms: _44  and  _46
REMARK   19  A    between atoms: _46  and  _47
REMARK   20  A    between atoms: _46  and  _49
REMARK   21  A    between atoms: _49  and  _50
REMARK   22  A    between atoms: _60  and  _62
REMARK   23  A    between atoms: _62  and  _63
REMARK   24  A    between atoms: _62  and  _65
REMARK   25  A    between atoms: _65  and  _66
REMARK   26  A    between atoms: _76  and  _78
REMARK   27  A    between atoms: _78  and  _79
REMARK   28  A    between atoms: _78  and  _81
REMARK   29  A    between atoms: _81  and  _82
REMARK   30  A    between atoms: _82  and  _83
REMARK   31  A    between atoms: _85  and  _87
REMARK   32  A    between atoms: _87  and  _88
REMARK   33  A    between atoms: _87  and  _90
REMARK   34  A    between atoms: _90  and  _91
REMARK   35  A    between atoms: _94  and  _96
REMARK   36  A    between atoms: _96  and  _97
REMARK   37  A    between atoms: _96  and  _99
REMARK   38  A    between atoms: _99  and  _100
REMARK   39  A    between atoms: _110  and  _112
REMARK   40  A    between atoms: _112  and  _113
REMARK   41  A    between atoms: _112  and  _115
REMARK   42  A    between atoms: _115  and  _116
REMARK   43  A    between atoms: _119  and  _121
REMARK   44  A    between atoms: _121  and  _122
REMARK   45  A    between atoms: _121  and  _124
REMARK   46  A    between atoms: _124  and  _125
REMARK   47  A    between atoms: _125  and  _126
REMARK   48  A    between atoms: _129  and  _131
REMARK   49  A    between atoms: _131  and  _132
REMARK   50  A    between atoms: _134  and  _136
REMARK   51  A    between atoms: _136  and  _137
REMARK   52  A    between atoms: _136  and  _139
REMARK   53  A    between atoms: _139  and  _140
REMARK   54  A    between atoms: _150  and  _152
REMARK   55  A    between atoms: _152  and  _153
REMARK   56  A    between atoms: _152  and  _155
REMARK   57  A    between atoms: _155  and  _156
REMARK   58  A    between atoms: _166  and  _168
REMARK   59  A    between atoms: _168  and  _169
REMARK   60  A    between atoms: _168  and  _171
REMARK   61  A    between atoms: _171  and  _172
REMARK   62  A    between atoms: _178  and  _180
REMARK   63  A    between atoms: _180  and  _181
REMARK   64  A    between atoms: _180  and  _183
REMARK   65  A    between atoms: _183  and  _184
REMARK   66  A    between atoms: _190  and  _192
REMARK   67  A    between atoms: _192  and  _193
REMARK   68  A    between atoms: _192  and  _195
REMARK   69  A    between atoms: _195  and  _196
REMARK   70  A    between atoms: _201  and  _203
REMARK   71  A    between atoms: _203  and  _204
REMARK   72  A    between atoms: _203  and  _206
REMARK   73  A    between atoms: _206  and  _207
REMARK   74  A    between atoms: _212  and  _214
REMARK   75  A    between atoms: _214  and  _215
REMARK   76  A    between atoms: _214  and  _217
REMARK   77  A    between atoms: _217  and  _218
REMARK   78  A    between atoms: _218  and  _219
REMARK   79  A    between atoms: _222  and  _224
REMARK   80  A    between atoms: _224  and  _225
REMARK   81  A    between atoms: _224  and  _227
REMARK   82  A    between atoms: _227  and  _228
REMARK   83  A    between atoms: _231  and  _233
REMARK   84  A    between atoms: _233  and  _234
REMARK   85  A    between atoms: _233  and  _236
REMARK   86  A    between atoms: _236  and  _237
REMARK   87  A    between atoms: _239  and  _241
REMARK   88  A    between atoms: _241  and  _242
REMARK   89  A    between atoms: _241  and  _244
REMARK   90  A    between atoms: _244  and  _245
REMARK   91  A    between atoms: _245  and  _246
REMARK   92  A    between atoms: _246  and  _247
REMARK   93  A    between atoms: _247  and  _248
REMARK   94  A    between atoms: _252  and  _254
REMARK   95  A    between atoms: _254  and  _255
REMARK   96  A    between atoms: _254  and  _257
REMARK   97  A    between atoms: _257  and  _258
REMARK   98  A    between atoms: _260  and  _262
REMARK   99  A    between atoms: _262  and  _263
REMARK  100  A    between atoms: _265  and  _267
REMARK  101  A    between atoms: _267  and  _268
REMARK  102  A    between atoms: _267  and  _270
REMARK  103  A    between atoms: _270  and  _271
REMARK  104  A    between atoms: _276  and  _277
REMARK  105  A    between atoms: _279  and  _281
REMARK  106  A    between atoms: _281  and  _282
REMARK  107  A    between atoms: _281  and  _284
REMARK  108  A    between atoms: _287  and  _289
REMARK  109  A    between atoms: _289  and  _290
REMARK  110  A    between atoms: _292  and  _294
REMARK  111  A    between atoms: _294  and  _295
REMARK  112  A    between atoms: _294  and  _297
REMARK  113  A    between atoms: _297  and  _298
REMARK  114  A    between atoms: _303  and  _305
REMARK  115  A    between atoms: _305  and  _306
REMARK  116  A    between atoms: _309  and  _311
REMARK  117  A    between atoms: _311  and  _312
REMARK  118  A    between atoms: _311  and  _314
REMARK  119  A    between atoms: _314  and  _315
REMARK  120  A    between atoms: _320  and  _322
REMARK  121  A    between atoms: _322  and  _323
REMARK  122  A    between atoms: _322  and  _325
REMARK  123  A    between atoms: _325  and  _326
REMARK  124  A    between atoms: _326  and  _327
REMARK  125  A    between atoms: _327  and  _329
REMARK  126  A    between atoms: _329  and  CA_431
REMARK  127  A    between atoms: _330  and  _332
REMARK  128  A    between atoms: _332  and  _333
REMARK  129  A    between atoms: _332  and  _335
REMARK  130  A    between atoms: _335  and  _336
REMARK  131  A    between atoms: _336  and  _337
REMARK  132  A    between atoms: _337  and  _338
REMARK  133  A    between atoms: _338  and  CA_431
REMARK  134  A    between atoms: _340  and  _342
REMARK  135  A    between atoms: _342  and  _343
REMARK  136  A    between atoms: _342  and  _345
REMARK  137  A    between atoms: _345  and  _346
REMARK  138  A    between atoms: _348  and  _350
REMARK  139  A    between atoms: _350  and  _351
REMARK  140  A    between atoms: _354  and  _356
REMARK  141  A    between atoms: _356  and  _357
REMARK  142  A    between atoms: _359  and  _361
REMARK  143  A    between atoms: _361  and  _362
REMARK  144  A    between atoms: _361  and  _364
REMARK  145  A    between atoms: _364  and  _365
REMARK  146  A    between atoms: _368  and  _370
REMARK  147  A    between atoms: _370  and  _371
REMARK  148  A    between atoms: _370  and  _373
REMARK  149  A    between atoms: _373  and  _374
REMARK  150  A    between atoms: _374  and  _375
REMARK  151  A    between atoms: _378  and  _380
REMARK  152  A    between atoms: _380  and  _381
REMARK  153  A    between atoms: _380  and  _383
REMARK  154  A    between atoms: _383  and  _384
REMARK  155  A    between atoms: _389  and  _390
REMARK  156  A    between atoms: _392  and  _394
REMARK  157  A    between atoms: _394  and  _395
REMARK  158  A    between atoms: _394  and  _397
REMARK  159  A    between atoms: _397  and  _398
REMARK  160  A    between atoms: _404  and  _406
REMARK  161  A    between atoms: _406  and  _407
REMARK  162  A    between atoms: _406  and  _409
REMARK  163  A    between atoms: _409  and  _410
REMARK  164  A    between atoms: _413  and  _415
REMARK  165  A    between atoms: _415  and  _416
REMARK  166  A    between atoms: _415  and  _418
REMARK  167  A    between atoms: _418  and  _419
REMARK  168  A    between atoms: _422  and  _424
REMARK  169  A    between atoms: _424  and  _425
REMARK  170  A    between atoms: _424  and  _427
REMARK  171  A    between atoms: _427  and  _428
REMARK  172  A    between atoms: _428  and  _429
REMARK                            x       y       z     vdW  Elec       q    Type
REMARK                         _______ _______ _______ _____ _____    ______ ____
ROOT
ATOM      1  O   HOH     1      23.884  43.286  73.499  0.00  0.00    +0.000 OA
ENDROOT
TORSDOF 0
