REMARK  Name = ../refined-set-2016/3mxd/3mxd_pocket.pdb
REMARK  222 active torsions:
REMARK  status: ('A' for Active; 'I' for Inactive)
REMARK    1  A    between atoms: _1  and  _3
REMARK    2  A    between atoms: _3  and  _4
REMARK    3  A    between atoms: _3  and  _6
REMARK    4  A    between atoms: _6  and  _7
REMARK    5  A    between atoms: _7  and  _8
REMARK    6  A    between atoms: _8  and  _9
REMARK    7  A    between atoms: _18  and  _20
REMARK    8  A    between atoms: _20  and  _21
REMARK    9  A    between atoms: _20  and  _23
REMARK   10  A    between atoms: _23  and  _24
REMARK   11  A    between atoms: _27  and  _29
REMARK   12  A    between atoms: _29  and  _30
REMARK   13  A    between atoms: _29  and  _32
REMARK   14  A    between atoms: _32  and  _33
REMARK   15  A    between atoms: _36  and  _38
REMARK   16  A    between atoms: _38  and  _39
REMARK   17  A    between atoms: _38  and  _41
REMARK   18  A    between atoms: _41  and  _42
REMARK   19  A    between atoms: _45  and  _47
REMARK   20  A    between atoms: _47  and  _48
REMARK   21  A    between atoms: _47  and  _50
REMARK   22  A    between atoms: _50  and  _51
REMARK   23  A    between atoms: _54  and  _56
REMARK   24  A    between atoms: _56  and  _57
REMARK   25  A    between atoms: _59  and  _61
REMARK   26  A    between atoms: _61  and  _62
REMARK   27  A    between atoms: _65  and  _67
REMARK   28  A    between atoms: _67  and  _68
REMARK   29  A    between atoms: _67  and  _70
REMARK   30  A    between atoms: _70  and  _71
REMARK   31  A    between atoms: _74  and  _76
REMARK   32  A    between atoms: _76  and  _77
REMARK   33  A    between atoms: _76  and  _79
REMARK   34  A    between atoms: _79  and  _80
REMARK   35  A    between atoms: _83  and  _85
REMARK   36  A    between atoms: _85  and  _86
REMARK   37  A    between atoms: _85  and  _88
REMARK   38  A    between atoms: _88  and  _89
REMARK   39  A    between atoms: _92  and  _94
REMARK   40  A    between atoms: _94  and  _95
REMARK   41  A    between atoms: _94  and  _97
REMARK   42  A    between atoms: _100  and  _102
REMARK   43  A    between atoms: _102  and  _103
REMARK   44  A    between atoms: _102  and  _105
REMARK   45  A    between atoms: _105  and  _106
REMARK   46  A    between atoms: _106  and  _107
REMARK   47  A    between atoms: _109  and  _111
REMARK   48  A    between atoms: _111  and  _112
REMARK   49  A    between atoms: _111  and  _114
REMARK   50  A    between atoms: _114  and  _115
REMARK   51  A    between atoms: _118  and  _120
REMARK   52  A    between atoms: _120  and  _121
REMARK   53  A    between atoms: _123  and  _125
REMARK   54  A    between atoms: _125  and  _126
REMARK   55  A    between atoms: _128  and  _130
REMARK   56  A    between atoms: _130  and  _131
REMARK   57  A    between atoms: _130  and  _133
REMARK   58  A    between atoms: _133  and  _134
REMARK   59  A    between atoms: _137  and  _139
REMARK   60  A    between atoms: _139  and  _140
REMARK   61  A    between atoms: _142  and  _144
REMARK   62  A    between atoms: _144  and  _145
REMARK   63  A    between atoms: _147  and  _149
REMARK   64  A    between atoms: _149  and  _150
REMARK   65  A    between atoms: _149  and  _152
REMARK   66  A    between atoms: _152  and  _153
REMARK   67  A    between atoms: _159  and  _161
REMARK   68  A    between atoms: _161  and  _162
REMARK   69  A    between atoms: _161  and  _164
REMARK   70  A    between atoms: _164  and  _165
REMARK   71  A    between atoms: _168  and  _170
REMARK   72  A    between atoms: _170  and  _171
REMARK   73  A    between atoms: _170  and  _173
REMARK   74  A    between atoms: _176  and  _178
REMARK   75  A    between atoms: _178  and  _179
REMARK   76  A    between atoms: _178  and  _181
REMARK   77  A    between atoms: _181  and  _182
REMARK   78  A    between atoms: _185  and  _187
REMARK   79  A    between atoms: _187  and  _188
REMARK   80  A    between atoms: _187  and  _190
REMARK   81  A    between atoms: _190  and  _191
REMARK   82  A    between atoms: _195  and  _196
REMARK   83  A    between atoms: _201  and  _203
REMARK   84  A    between atoms: _203  and  _204
REMARK   85  A    between atoms: _203  and  _206
REMARK   86  A    between atoms: _209  and  _211
REMARK   87  A    between atoms: _211  and  _212
REMARK   88  A    between atoms: _211  and  _214
REMARK   89  A    between atoms: _214  and  _215
REMARK   90  A    between atoms: _220  and  _222
REMARK   91  A    between atoms: _222  and  _223
REMARK   92  A    between atoms: _222  and  _225
REMARK   93  A    between atoms: _225  and  _226
REMARK   94  A    between atoms: _229  and  _231
REMARK   95  A    between atoms: _231  and  _232
REMARK   96  A    between atoms: _231  and  _234
REMARK   97  A    between atoms: _234  and  _235
REMARK   98  A    between atoms: _238  and  _240
REMARK   99  A    between atoms: _240  and  _241
REMARK  100  A    between atoms: _243  and  _245
REMARK  101  A    between atoms: _245  and  _246
REMARK  102  A    between atoms: _245  and  _248
REMARK  103  A    between atoms: _248  and  _249
REMARK  104  A    between atoms: _249  and  _250
REMARK  105  A    between atoms: _250  and  _251
REMARK  106  A    between atoms: _260  and  _262
REMARK  107  A    between atoms: _262  and  _263
REMARK  108  A    between atoms: _262  and  _265
REMARK  109  A    between atoms: _265  and  _266
REMARK  110  A    between atoms: _271  and  _273
REMARK  111  A    between atoms: _273  and  _274
REMARK  112  A    between atoms: _273  and  _276
REMARK  113  A    between atoms: _276  and  _277
REMARK  114  A    between atoms: _277  and  _278
REMARK  115  A    between atoms: _278  and  _279
REMARK  116  A    between atoms: _288  and  _290
REMARK  117  A    between atoms: _290  and  _291
REMARK  118  A    between atoms: _290  and  _293
REMARK  119  A    between atoms: _293  and  _294
REMARK  120  A    between atoms: _297  and  _299
REMARK  121  A    between atoms: _299  and  _300
REMARK  122  A    between atoms: _299  and  _302
REMARK  123  A    between atoms: _302  and  _303
REMARK  124  A    between atoms: _306  and  _308
REMARK  125  A    between atoms: _308  and  _309
REMARK  126  A    between atoms: _308  and  _311
REMARK  127  A    between atoms: _311  and  _312
REMARK  128  A    between atoms: _315  and  _317
REMARK  129  A    between atoms: _317  and  _318
REMARK  130  A    between atoms: _317  and  _320
REMARK  131  A    between atoms: _320  and  _321
REMARK  132  A    between atoms: _324  and  _326
REMARK  133  A    between atoms: _326  and  _327
REMARK  134  A    between atoms: _329  and  _331
REMARK  135  A    between atoms: _331  and  _332
REMARK  136  A    between atoms: _335  and  _337
REMARK  137  A    between atoms: _337  and  _338
REMARK  138  A    between atoms: _337  and  _340
REMARK  139  A    between atoms: _340  and  _341
REMARK  140  A    between atoms: _344  and  _346
REMARK  141  A    between atoms: _346  and  _347
REMARK  142  A    between atoms: _346  and  _349
REMARK  143  A    between atoms: _349  and  _350
REMARK  144  A    between atoms: _353  and  _355
REMARK  145  A    between atoms: _355  and  _356
REMARK  146  A    between atoms: _355  and  _358
REMARK  147  A    between atoms: _358  and  _359
REMARK  148  A    between atoms: _362  and  _364
REMARK  149  A    between atoms: _364  and  _365
REMARK  150  A    between atoms: _364  and  _367
REMARK  151  A    between atoms: _370  and  _372
REMARK  152  A    between atoms: _372  and  _373
REMARK  153  A    between atoms: _372  and  _375
REMARK  154  A    between atoms: _375  and  _376
REMARK  155  A    between atoms: _376  and  _377
REMARK  156  A    between atoms: _377  and  _378
REMARK  157  A    between atoms: _378  and  _379
REMARK  158  A    between atoms: _383  and  _385
REMARK  159  A    between atoms: _385  and  _386
REMARK  160  A    between atoms: _385  and  _388
REMARK  161  A    between atoms: _388  and  _389
REMARK  162  A    between atoms: _389  and  _390
REMARK  163  A    between atoms: _392  and  _394
REMARK  164  A    between atoms: _394  and  _395
REMARK  165  A    between atoms: _394  and  _397
REMARK  166  A    between atoms: _397  and  _398
REMARK  167  A    between atoms: _401  and  _403
REMARK  168  A    between atoms: _403  and  _404
REMARK  169  A    between atoms: _406  and  _408
REMARK  170  A    between atoms: _408  and  _409
REMARK  171  A    between atoms: _411  and  _413
REMARK  172  A    between atoms: _413  and  _414
REMARK  173  A    between atoms: _413  and  _416
REMARK  174  A    between atoms: _416  and  _417
REMARK  175  A    between atoms: _420  and  _422
REMARK  176  A    between atoms: _422  and  _423
REMARK  177  A    between atoms: _425  and  _427
REMARK  178  A    between atoms: _427  and  _428
REMARK  179  A    between atoms: _430  and  _432
REMARK  180  A    between atoms: _432  and  _433
REMARK  181  A    between atoms: _432  and  _435
REMARK  182  A    between atoms: _435  and  _436
REMARK  183  A    between atoms: _442  and  _444
REMARK  184  A    between atoms: _444  and  _445
REMARK  185  A    between atoms: _444  and  _447
REMARK  186  A    between atoms: _447  and  _448
REMARK  187  A    between atoms: _451  and  _453
REMARK  188  A    between atoms: _453  and  _454
REMARK  189  A    between atoms: _453  and  _456
REMARK  190  A    between atoms: _456  and  _457
REMARK  191  A    between atoms: _460  and  _462
REMARK  192  A    between atoms: _462  and  _463
REMARK  193  A    between atoms: _462  and  _465
REMARK  194  A    between atoms: _465  and  _466
REMARK  195  A    between atoms: _470  and  _471
REMARK  196  A    between atoms: _476  and  _478
REMARK  197  A    between atoms: _478  and  _479
REMARK  198  A    between atoms: _478  and  _481
REMARK  199  A    between atoms: _484  and  _486
REMARK  200  A    between atoms: _486  and  _487
REMARK  201  A    between atoms: _486  and  _489
REMARK  202  A    between atoms: _489  and  _490
REMARK  203  A    between atoms: _495  and  _497
REMARK  204  A    between atoms: _497  and  _498
REMARK  205  A    between atoms: _497  and  _500
REMARK  206  A    between atoms: _500  and  _501
REMARK  207  A    between atoms: _504  and  _506
REMARK  208  A    between atoms: _506  and  _507
REMARK  209  A    between atoms: _506  and  _509
REMARK  210  A    between atoms: _509  and  _510
REMARK  211  A    between atoms: _513  and  _515
REMARK  212  A    between atoms: _515  and  _516
REMARK  213  A    between atoms: _518  and  _520
REMARK  214  A    between atoms: _520  and  _521
REMARK  215  A    between atoms: _520  and  _523
REMARK  216  A    between atoms: _523  and  _524
REMARK  217  A    between atoms: _524  and  _525
REMARK  218  A    between atoms: _525  and  _526
REMARK  219  A    between atoms: _535  and  _537
REMARK  220  A    between atoms: _537  and  _538
REMARK  221  A    between atoms: _537  and  _540
REMARK  222  A    between atoms: _540  and  _541
REMARK                            x       y       z     vdW  Elec       q    Type
REMARK                         _______ _______ _______ _____ _____    ______ ____
ROOT
ATOM      1  NE  ARG A   1      21.147  37.202  23.731  0.00  0.00    -0.265 N 
ATOM      2  HE  ARG A   1      20.648  37.644  24.529  0.00  0.00    +0.259 HD
ATOM      3  CZ  ARG A   1      20.956  37.745  22.524  0.00  0.00    +0.342 C 
ATOM      4  NH2 ARG A   1      20.162  38.800  22.410  0.00  0.00    -0.292 N 
ATOM      5 HH21 ARG A   1      19.697  39.195  23.253  0.00  0.00    +0.255 HD
ATOM      6 HH22 ARG A   1      20.004  39.233  21.478  0.00  0.00    +0.255 HD
ATOM      7  NH1 ARG A   1      21.506  37.228  21.420  0.00  0.00    -0.292 N 
ATOM      8 HH11 ARG A   1      22.103  36.379  21.485  0.00  0.00    +0.255 HD
ATOM      9 HH12 ARG A   1      21.337  37.675  20.496  0.00  0.00    +0.255 HD
ENDROOT
BRANCH   1  10
ATOM     10  CD  ARG A   1      21.993  36.042  24.039  0.00  0.00    +0.174 C 
BRANCH  10  11
ATOM     11  CG  ARG A   1      21.393  35.195  25.171  0.00  0.00    +0.045 C 
BRANCH  11  12
ATOM     12  CB  ARG A   1      22.428  34.420  25.944  0.00  0.00    +0.029 C 
BRANCH  12  13
ATOM     13  CA  ARG A   1      21.837  33.420  26.942  0.00  0.00    +0.133 C 
BRANCH  13  14
ATOM     14  N   ARG A   1      21.166  34.097  28.046  0.00  0.00    -0.239 NA
ATOM     15  H   ARG A   1      21.143  35.136  28.073  0.00  0.00    +0.142 HD
ENDBRANCH  13  14
BRANCH  13  16
ATOM     16  C   ARG A   1      22.958  32.534  27.501  0.00  0.00    +0.224 C 
ATOM     17  O   ARG A   1      23.753  32.983  28.338  0.00  0.00    -0.287 OA
ENDBRANCH  13  16
ENDBRANCH  12  13
ENDBRANCH  11  12
ENDBRANCH  10  11
ENDBRANCH   1  10
TORSDOF 6
REMARK  Name = ../refined-set-2016/3mxd/3mxd_pocket.pdb
REMARK  222 active torsions:
REMARK  status: ('A' for Active; 'I' for Inactive)
REMARK    1  A    between atoms: _1  and  _3
REMARK    2  A    between atoms: _3  and  _4
REMARK    3  A    between atoms: _3  and  _6
REMARK    4  A    between atoms: _6  and  _7
REMARK    5  A    between atoms: _7  and  _8
REMARK    6  A    between atoms: _8  and  _9
REMARK    7  A    between atoms: _18  and  _20
REMARK    8  A    between atoms: _20  and  _21
REMARK    9  A    between atoms: _20  and  _23
REMARK   10  A    between atoms: _23  and  _24
REMARK   11  A    between atoms: _27  and  _29
REMARK   12  A    between atoms: _29  and  _30
REMARK   13  A    between atoms: _29  and  _32
REMARK   14  A    between atoms: _32  and  _33
REMARK   15  A    between atoms: _36  and  _38
REMARK   16  A    between atoms: _38  and  _39
REMARK   17  A    between atoms: _38  and  _41
REMARK   18  A    between atoms: _41  and  _42
REMARK   19  A    between atoms: _45  and  _47
REMARK   20  A    between atoms: _47  and  _48
REMARK   21  A    between atoms: _47  and  _50
REMARK   22  A    between atoms: _50  and  _51
REMARK   23  A    between atoms: _54  and  _56
REMARK   24  A    between atoms: _56  and  _57
REMARK   25  A    between atoms: _59  and  _61
REMARK   26  A    between atoms: _61  and  _62
REMARK   27  A    between atoms: _65  and  _67
REMARK   28  A    between atoms: _67  and  _68
REMARK   29  A    between atoms: _67  and  _70
REMARK   30  A    between atoms: _70  and  _71
REMARK   31  A    between atoms: _74  and  _76
REMARK   32  A    between atoms: _76  and  _77
REMARK   33  A    between atoms: _76  and  _79
REMARK   34  A    between atoms: _79  and  _80
REMARK   35  A    between atoms: _83  and  _85
REMARK   36  A    between atoms: _85  and  _86
REMARK   37  A    between atoms: _85  and  _88
REMARK   38  A    between atoms: _88  and  _89
REMARK   39  A    between atoms: _92  and  _94
REMARK   40  A    between atoms: _94  and  _95
REMARK   41  A    between atoms: _94  and  _97
REMARK   42  A    between atoms: _100  and  _102
REMARK   43  A    between atoms: _102  and  _103
REMARK   44  A    between atoms: _102  and  _105
REMARK   45  A    between atoms: _105  and  _106
REMARK   46  A    between atoms: _106  and  _107
REMARK   47  A    between atoms: _109  and  _111
REMARK   48  A    between atoms: _111  and  _112
REMARK   49  A    between atoms: _111  and  _114
REMARK   50  A    between atoms: _114  and  _115
REMARK   51  A    between atoms: _118  and  _120
REMARK   52  A    between atoms: _120  and  _121
REMARK   53  A    between atoms: _123  and  _125
REMARK   54  A    between atoms: _125  and  _126
REMARK   55  A    between atoms: _128  and  _130
REMARK   56  A    between atoms: _130  and  _131
REMARK   57  A    between atoms: _130  and  _133
REMARK   58  A    between atoms: _133  and  _134
REMARK   59  A    between atoms: _137  and  _139
REMARK   60  A    between atoms: _139  and  _140
REMARK   61  A    between atoms: _142  and  _144
REMARK   62  A    between atoms: _144  and  _145
REMARK   63  A    between atoms: _147  and  _149
REMARK   64  A    between atoms: _149  and  _150
REMARK   65  A    between atoms: _149  and  _152
REMARK   66  A    between atoms: _152  and  _153
REMARK   67  A    between atoms: _159  and  _161
REMARK   68  A    between atoms: _161  and  _162
REMARK   69  A    between atoms: _161  and  _164
REMARK   70  A    between atoms: _164  and  _165
REMARK   71  A    between atoms: _168  and  _170
REMARK   72  A    between atoms: _170  and  _171
REMARK   73  A    between atoms: _170  and  _173
REMARK   74  A    between atoms: _176  and  _178
REMARK   75  A    between atoms: _178  and  _179
REMARK   76  A    between atoms: _178  and  _181
REMARK   77  A    between atoms: _181  and  _182
REMARK   78  A    between atoms: _185  and  _187
REMARK   79  A    between atoms: _187  and  _188
REMARK   80  A    between atoms: _187  and  _190
REMARK   81  A    between atoms: _190  and  _191
REMARK   82  A    between atoms: _195  and  _196
REMARK   83  A    between atoms: _201  and  _203
REMARK   84  A    between atoms: _203  and  _204
REMARK   85  A    between atoms: _203  and  _206
REMARK   86  A    between atoms: _209  and  _211
REMARK   87  A    between atoms: _211  and  _212
REMARK   88  A    between atoms: _211  and  _214
REMARK   89  A    between atoms: _214  and  _215
REMARK   90  A    between atoms: _220  and  _222
REMARK   91  A    between atoms: _222  and  _223
REMARK   92  A    between atoms: _222  and  _225
REMARK   93  A    between atoms: _225  and  _226
REMARK   94  A    between atoms: _229  and  _231
REMARK   95  A    between atoms: _231  and  _232
REMARK   96  A    between atoms: _231  and  _234
REMARK   97  A    between atoms: _234  and  _235
REMARK   98  A    between atoms: _238  and  _240
REMARK   99  A    between atoms: _240  and  _241
REMARK  100  A    between atoms: _243  and  _245
REMARK  101  A    between atoms: _245  and  _246
REMARK  102  A    between atoms: _245  and  _248
REMARK  103  A    between atoms: _248  and  _249
REMARK  104  A    between atoms: _249  and  _250
REMARK  105  A    between atoms: _250  and  _251
REMARK  106  A    between atoms: _260  and  _262
REMARK  107  A    between atoms: _262  and  _263
REMARK  108  A    between atoms: _262  and  _265
REMARK  109  A    between atoms: _265  and  _266
REMARK  110  A    between atoms: _271  and  _273
REMARK  111  A    between atoms: _273  and  _274
REMARK  112  A    between atoms: _273  and  _276
REMARK  113  A    between atoms: _276  and  _277
REMARK  114  A    between atoms: _277  and  _278
REMARK  115  A    between atoms: _278  and  _279
REMARK  116  A    between atoms: _288  and  _290
REMARK  117  A    between atoms: _290  and  _291
REMARK  118  A    between atoms: _290  and  _293
REMARK  119  A    between atoms: _293  and  _294
REMARK  120  A    between atoms: _297  and  _299
REMARK  121  A    between atoms: _299  and  _300
REMARK  122  A    between atoms: _299  and  _302
REMARK  123  A    between atoms: _302  and  _303
REMARK  124  A    between atoms: _306  and  _308
REMARK  125  A    between atoms: _308  and  _309
REMARK  126  A    between atoms: _308  and  _311
REMARK  127  A    between atoms: _311  and  _312
REMARK  128  A    between atoms: _315  and  _317
REMARK  129  A    between atoms: _317  and  _318
REMARK  130  A    between atoms: _317  and  _320
REMARK  131  A    between atoms: _320  and  _321
REMARK  132  A    between atoms: _324  and  _326
REMARK  133  A    between atoms: _326  and  _327
REMARK  134  A    between atoms: _329  and  _331
REMARK  135  A    between atoms: _331  and  _332
REMARK  136  A    between atoms: _335  and  _337
REMARK  137  A    between atoms: _337  and  _338
REMARK  138  A    between atoms: _337  and  _340
REMARK  139  A    between atoms: _340  and  _341
REMARK  140  A    between atoms: _344  and  _346
REMARK  141  A    between atoms: _346  and  _347
REMARK  142  A    between atoms: _346  and  _349
REMARK  143  A    between atoms: _349  and  _350
REMARK  144  A    between atoms: _353  and  _355
REMARK  145  A    between atoms: _355  and  _356
REMARK  146  A    between atoms: _355  and  _358
REMARK  147  A    between atoms: _358  and  _359
REMARK  148  A    between atoms: _362  and  _364
REMARK  149  A    between atoms: _364  and  _365
REMARK  150  A    between atoms: _364  and  _367
REMARK  151  A    between atoms: _370  and  _372
REMARK  152  A    between atoms: _372  and  _373
REMARK  153  A    between atoms: _372  and  _375
REMARK  154  A    between atoms: _375  and  _376
REMARK  155  A    between atoms: _376  and  _377
REMARK  156  A    between atoms: _377  and  _378
REMARK  157  A    between atoms: _378  and  _379
REMARK  158  A    between atoms: _383  and  _385
REMARK  159  A    between atoms: _385  and  _386
REMARK  160  A    between atoms: _385  and  _388
REMARK  161  A    between atoms: _388  and  _389
REMARK  162  A    between atoms: _389  and  _390
REMARK  163  A    between atoms: _392  and  _394
REMARK  164  A    between atoms: _394  and  _395
REMARK  165  A    between atoms: _394  and  _397
REMARK  166  A    between atoms: _397  and  _398
REMARK  167  A    between atoms: _401  and  _403
REMARK  168  A    between atoms: _403  and  _404
REMARK  169  A    between atoms: _406  and  _408
REMARK  170  A    between atoms: _408  and  _409
REMARK  171  A    between atoms: _411  and  _413
REMARK  172  A    between atoms: _413  and  _414
REMARK  173  A    between atoms: _413  and  _416
REMARK  174  A    between atoms: _416  and  _417
REMARK  175  A    between atoms: _420  and  _422
REMARK  176  A    between atoms: _422  and  _423
REMARK  177  A    between atoms: _425  and  _427
REMARK  178  A    between atoms: _427  and  _428
REMARK  179  A    between atoms: _430  and  _432
REMARK  180  A    between atoms: _432  and  _433
REMARK  181  A    between atoms: _432  and  _435
REMARK  182  A    between atoms: _435  and  _436
REMARK  183  A    between atoms: _442  and  _444
REMARK  184  A    between atoms: _444  and  _445
REMARK  185  A    between atoms: _444  and  _447
REMARK  186  A    between atoms: _447  and  _448
REMARK  187  A    between atoms: _451  and  _453
REMARK  188  A    between atoms: _453  and  _454
REMARK  189  A    between atoms: _453  and  _456
REMARK  190  A    between atoms: _456  and  _457
REMARK  191  A    between atoms: _460  and  _462
REMARK  192  A    between atoms: _462  and  _463
REMARK  193  A    between atoms: _462  and  _465
REMARK  194  A    between atoms: _465  and  _466
REMARK  195  A    between atoms: _470  and  _471
REMARK  196  A    between atoms: _476  and  _478
REMARK  197  A    between atoms: _478  and  _479
REMARK  198  A    between atoms: _478  and  _481
REMARK  199  A    between atoms: _484  and  _486
REMARK  200  A    between atoms: _486  and  _487
REMARK  201  A    between atoms: _486  and  _489
REMARK  202  A    between atoms: _489  and  _490
REMARK  203  A    between atoms: _495  and  _497
REMARK  204  A    between atoms: _497  and  _498
REMARK  205  A    between atoms: _497  and  _500
REMARK  206  A    between atoms: _500  and  _501
REMARK  207  A    between atoms: _504  and  _506
REMARK  208  A    between atoms: _506  and  _507
REMARK  209  A    between atoms: _506  and  _509
REMARK  210  A    between atoms: _509  and  _510
REMARK  211  A    between atoms: _513  and  _515
REMARK  212  A    between atoms: _515  and  _516
REMARK  213  A    between atoms: _518  and  _520
REMARK  214  A    between atoms: _520  and  _521
REMARK  215  A    between atoms: _520  and  _523
REMARK  216  A    between atoms: _523  and  _524
REMARK  217  A    between atoms: _524  and  _525
REMARK  218  A    between atoms: _525  and  _526
REMARK  219  A    between atoms: _535  and  _537
REMARK  220  A    between atoms: _537  and  _538
REMARK  221  A    between atoms: _537  and  _540
REMARK  222  A    between atoms: _540  and  _541
REMARK                            x       y       z     vdW  Elec       q    Type
REMARK                         _______ _______ _______ _____ _____    ______ ____
ROOT
ATOM      1  C   GLY A   5      20.619  25.008  15.879  0.00  0.00    +0.243 C 
ATOM      2  N   ALA A   6      21.921  24.925  16.157  0.00  0.00    -0.297 N 
ATOM      3  H   ALA A   6      22.217  24.819  17.148  0.00  0.00    +0.150 HD
ATOM      4  O   GLY A   5      20.187  25.191  14.731  0.00  0.00    -0.273 OA
ENDROOT
BRANCH   2   5
ATOM      5  CA  ALA A   6      22.944  24.978  15.120  0.00  0.00    +0.149 C 
ATOM      6  CB  ALA A   6      24.000  26.006  15.487  0.00  0.00    +0.031 C 
BRANCH   5   7
ATOM      7  C   ALA A   6      23.595  23.615  14.917  0.00  0.00    +0.241 C 
ATOM      8  O   ALA A   6      24.093  23.022  15.870  0.00  0.00    -0.273 OA
ATOM      9  N   ASP A   7      23.604  23.140  13.672  0.00  0.00    -0.297 N 
ATOM     10  H   ASP A   7      23.099  23.670  12.934  0.00  0.00    +0.150 HD
BRANCH   9  11
ATOM     11  CA  ASP A   7      24.296  21.902  13.298  0.00  0.00    +0.160 C 
BRANCH  11  12
ATOM     12  C   ASP A   7      25.798  22.106  13.462  0.00  0.00    +0.241 C 
ATOM     13  O   ASP A   7      26.523  21.215  13.910  0.00  0.00    -0.273 OA
ATOM     14  N   ASP A   8      26.248  23.283  13.044  0.00  0.00    -0.297 N 
ATOM     15  H   ASP A   8      25.559  24.031  12.827  0.00  0.00    +0.150 HD
BRANCH  14  16
ATOM     16  CA  ASP A   8      27.665  23.570  12.877  0.00  0.00    +0.160 C 
BRANCH  16  17
ATOM     17  C   ASP A   8      28.096  24.714  13.759  0.00  0.00    +0.241 C 
ATOM     18  N   THR A   9      29.372  24.696  14.132  0.00  0.00    -0.295 N 
ATOM     19  H   THR A   9      29.954  23.880  13.853  0.00  0.00    +0.150 HD
ATOM     20  O   ASP A   8      27.303  25.593  14.076  0.00  0.00    -0.273 OA
BRANCH  18  21
ATOM     21  CA  THR A   9      30.000  25.755  14.909  0.00  0.00    +0.176 C 
BRANCH  21  22
ATOM     22  C   THR A   9      30.437  26.842  13.932  0.00  0.00    +0.243 C 
ATOM     23  N   VAL A  10      30.008  28.076  14.192  0.00  0.00    -0.298 N 
ATOM     24  H   VAL A  10      29.450  28.245  15.053  0.00  0.00    +0.150 HD
ATOM     25  O   THR A   9      31.120  26.555  12.940  0.00  0.00    -0.273 OA
BRANCH  23  26
ATOM     26  CA  VAL A  10      30.299  29.203  13.301  0.00  0.00    +0.137 C 
BRANCH  26  27
ATOM     27  CB  VAL A  10      29.045  29.687  12.518  0.00  0.00    +0.026 C 
ATOM     28  CG2 VAL A  10      28.237  28.505  12.002  0.00  0.00    +0.002 C 
ATOM     29  CG1 VAL A  10      29.470  30.577  11.357  0.00  0.00    +0.002 C 
ENDBRANCH  26  27
BRANCH  26  30
ATOM     30  C   VAL A  10      30.842  30.354  14.132  0.00  0.00    +0.227 C 
ATOM     31  O   VAL A  10      30.155  30.839  15.032  0.00  0.00    -0.286 OA
ENDBRANCH  26  30
ENDBRANCH  23  26
ENDBRANCH  21  22
BRANCH  21  32
ATOM     32  CB  THR A   9      31.189  25.179  15.691  0.00  0.00    +0.137 C 
ATOM     33  CG2 THR A   9      32.000  26.263  16.397  0.00  0.00    +0.034 C 
BRANCH  32  34
ATOM     34  OG1 THR A   9      30.694  24.246  16.658  0.00  0.00    -0.382 OA
ATOM     35  HG1 THR A   9      30.211  23.517  16.194  0.00  0.00    +0.210 HD
ENDBRANCH  32  34
ENDBRANCH  21  32
ENDBRANCH  18  21
ENDBRANCH  16  17
BRANCH  16  36
ATOM     36  CB  ASP A   8      27.944  23.925  11.415  0.00  0.00    +0.143 C 
BRANCH  36  37
ATOM     37  CG  ASP A   8      27.490  22.843  10.454  0.00  0.00    +0.367 C 
ATOM     38  OD2 ASP A   8      27.885  21.670  10.659  0.00  0.00    -0.246 OA
ATOM     39  OD1 ASP A   8      26.743  23.176   9.497  0.00  0.00    -0.246 OA
ENDBRANCH  36  37
ENDBRANCH  16  36
ENDBRANCH  14  16
ENDBRANCH  11  12
BRANCH  11  40
ATOM     40  CB  ASP A   7      24.075  21.561  11.820  0.00  0.00    +0.143 C 
BRANCH  40  41
ATOM     41  CG  ASP A   7      22.644  21.208  11.482  0.00  0.00    +0.367 C 
ATOM     42  OD2 ASP A   7      21.784  21.118  12.383  0.00  0.00    -0.246 OA
ATOM     43  OD1 ASP A   7      22.385  21.023  10.277  0.00  0.00    -0.246 OA
ENDBRANCH  40  41
ENDBRANCH  11  40
ENDBRANCH   9  11
ENDBRANCH   5   7
ENDBRANCH   2   5
BRANCH   1  44
ATOM     44  CA  GLY A   5      19.649  24.883  17.043  0.00  0.00    +0.176 C 
BRANCH  44  46
ATOM     45  C   THR A   4      20.710  23.550  18.786  0.00  0.00    +0.243 C 
ATOM     46  N   GLY A   5      20.256  24.726  18.366  0.00  0.00    -0.295 N 
ATOM     47  H   GLY A   5      20.334  25.554  18.991  0.00  0.00    +0.150 HD
ATOM     48  O   THR A   4      20.531  22.509  18.149  0.00  0.00    -0.273 OA
BRANCH  45  49
ATOM     49  CA  THR A   4      21.487  23.533  20.108  0.00  0.00    +0.176 C 
BRANCH  49  51
ATOM     50  C   ASP A   3      22.959  25.445  19.793  0.00  0.00    +0.241 C 
ATOM     51  N   THR A   4      21.979  24.861  20.472  0.00  0.00    -0.295 N 
ATOM     52  H   THR A   4      21.552  25.358  21.280  0.00  0.00    +0.150 HD
ATOM     53  O   ASP A   3      23.469  24.938  18.786  0.00  0.00    -0.273 OA
BRANCH  50  54
ATOM     54  CA  ASP A   3      23.418  26.810  20.304  0.00  0.00    +0.160 C 
BRANCH  54  57
ATOM     55  C   LEU A   2      24.541  27.216  22.442  0.00  0.00    +0.241 C 
ATOM     56  O   LEU A   2      23.538  27.676  22.986  0.00  0.00    -0.273 OA
ATOM     57  N   ASP A   3      24.531  26.662  21.232  0.00  0.00    -0.297 N 
ATOM     58  H   ASP A   3      25.354  26.099  20.936  0.00  0.00    +0.150 HD
BRANCH  55  59
ATOM     59  CA  LEU A   2      25.898  27.294  23.129  0.00  0.00    +0.149 C 
BRANCH  59  61
ATOM     60  C   LEU A   1      26.609  29.443  22.215  0.00  0.00    +0.238 C 
ATOM     61  N   LEU A   2      26.236  28.712  23.261  0.00  0.00    -0.297 N 
ATOM     62  H   LEU A   2      26.183  29.160  24.198  0.00  0.00    +0.150 HD
ATOM     63  O   LEU A   1      26.810  28.971  21.096  0.00  0.00    -0.274 OA
BRANCH  60  64
ATOM     64  CA  LEU A   1      26.801  30.929  22.466  0.00  0.00    +0.145 C 
BRANCH  64  65
ATOM     65  N   LEU A   1      28.149  31.325  22.091  0.00  0.00    -0.238 NA
ATOM     66  H   LEU A   1      28.341  31.508  21.085  0.00  0.00    +0.142 HD
ENDBRANCH  64  65
BRANCH  64  67
ATOM     67  CB  LEU A   1      25.808  31.706  21.611  0.00  0.00    +0.026 C 
BRANCH  67  68
ATOM     68  CG  LEU A   1      24.314  31.485  21.828  0.00  0.00    +0.002 C 
ATOM     69  CD2 LEU A   1      23.910  31.989  23.196  0.00  0.00    +0.000 C 
ATOM     70  CD1 LEU A   1      23.563  32.204  20.727  0.00  0.00    +0.000 C 
ENDBRANCH  67  68
ENDBRANCH  64  67
ENDBRANCH  60  64
ENDBRANCH  59  61
BRANCH  59  71
ATOM     71  CB  LEU A   2      25.861  26.610  24.501  0.00  0.00    +0.029 C 
BRANCH  71  72
ATOM     72  CG  LEU A   2      27.124  26.714  25.345  0.00  0.00    +0.002 C 
ATOM     73  CD2 LEU A   2      26.914  26.029  26.690  0.00  0.00    +0.000 C 
ATOM     74  CD1 LEU A   2      28.320  26.107  24.598  0.00  0.00    +0.000 C 
ENDBRANCH  71  72
ENDBRANCH  59  71
ENDBRANCH  55  59
ENDBRANCH  54  57
BRANCH  54  75
ATOM     75  CB  ASP A   3      23.886  27.703  19.140  0.00  0.00    +0.143 C 
BRANCH  75  76
ATOM     76  CG  ASP A   3      22.781  28.092  18.212  0.00  0.00    +0.367 C 
ATOM     77  OD2 ASP A   3      21.667  27.527  18.322  0.00  0.00    -0.246 OA
ATOM     78  OD1 ASP A   3      23.029  28.984  17.373  0.00  0.00    -0.246 OA
ENDBRANCH  75  76
ENDBRANCH  54  75
ENDBRANCH  50  54
ENDBRANCH  49  51
BRANCH  49  79
ATOM     79  CB  THR A   4      20.604  22.936  21.218  0.00  0.00    +0.137 C 
ATOM     80  CG2 THR A   4      21.415  22.737  22.505  0.00  0.00    +0.034 C 
BRANCH  79  81
ATOM     81  OG1 THR A   4      19.482  23.800  21.469  0.00  0.00    -0.382 OA
ATOM     82  HG1 THR A   4      18.948  23.894  20.641  0.00  0.00    +0.210 HD
ENDBRANCH  79  81
ENDBRANCH  49  79
ENDBRANCH  45  49
ENDBRANCH  44  46
ENDBRANCH   1  44
TORSDOF 35
REMARK  Name = ../refined-set-2016/3mxd/3mxd_pocket.pdb
REMARK  222 active torsions:
REMARK  status: ('A' for Active; 'I' for Inactive)
REMARK    1  A    between atoms: _1  and  _3
REMARK    2  A    between atoms: _3  and  _4
REMARK    3  A    between atoms: _3  and  _6
REMARK    4  A    between atoms: _6  and  _7
REMARK    5  A    between atoms: _7  and  _8
REMARK    6  A    between atoms: _8  and  _9
REMARK    7  A    between atoms: _18  and  _20
REMARK    8  A    between atoms: _20  and  _21
REMARK    9  A    between atoms: _20  and  _23
REMARK   10  A    between atoms: _23  and  _24
REMARK   11  A    between atoms: _27  and  _29
REMARK   12  A    between atoms: _29  and  _30
REMARK   13  A    between atoms: _29  and  _32
REMARK   14  A    between atoms: _32  and  _33
REMARK   15  A    between atoms: _36  and  _38
REMARK   16  A    between atoms: _38  and  _39
REMARK   17  A    between atoms: _38  and  _41
REMARK   18  A    between atoms: _41  and  _42
REMARK   19  A    between atoms: _45  and  _47
REMARK   20  A    between atoms: _47  and  _48
REMARK   21  A    between atoms: _47  and  _50
REMARK   22  A    between atoms: _50  and  _51
REMARK   23  A    between atoms: _54  and  _56
REMARK   24  A    between atoms: _56  and  _57
REMARK   25  A    between atoms: _59  and  _61
REMARK   26  A    between atoms: _61  and  _62
REMARK   27  A    between atoms: _65  and  _67
REMARK   28  A    between atoms: _67  and  _68
REMARK   29  A    between atoms: _67  and  _70
REMARK   30  A    between atoms: _70  and  _71
REMARK   31  A    between atoms: _74  and  _76
REMARK   32  A    between atoms: _76  and  _77
REMARK   33  A    between atoms: _76  and  _79
REMARK   34  A    between atoms: _79  and  _80
REMARK   35  A    between atoms: _83  and  _85
REMARK   36  A    between atoms: _85  and  _86
REMARK   37  A    between atoms: _85  and  _88
REMARK   38  A    between atoms: _88  and  _89
REMARK   39  A    between atoms: _92  and  _94
REMARK   40  A    between atoms: _94  and  _95
REMARK   41  A    between atoms: _94  and  _97
REMARK   42  A    between atoms: _100  and  _102
REMARK   43  A    between atoms: _102  and  _103
REMARK   44  A    between atoms: _102  and  _105
REMARK   45  A    between atoms: _105  and  _106
REMARK   46  A    between atoms: _106  and  _107
REMARK   47  A    between atoms: _109  and  _111
REMARK   48  A    between atoms: _111  and  _112
REMARK   49  A    between atoms: _111  and  _114
REMARK   50  A    between atoms: _114  and  _115
REMARK   51  A    between atoms: _118  and  _120
REMARK   52  A    between atoms: _120  and  _121
REMARK   53  A    between atoms: _123  and  _125
REMARK   54  A    between atoms: _125  and  _126
REMARK   55  A    between atoms: _128  and  _130
REMARK   56  A    between atoms: _130  and  _131
REMARK   57  A    between atoms: _130  and  _133
REMARK   58  A    between atoms: _133  and  _134
REMARK   59  A    between atoms: _137  and  _139
REMARK   60  A    between atoms: _139  and  _140
REMARK   61  A    between atoms: _142  and  _144
REMARK   62  A    between atoms: _144  and  _145
REMARK   63  A    between atoms: _147  and  _149
REMARK   64  A    between atoms: _149  and  _150
REMARK   65  A    between atoms: _149  and  _152
REMARK   66  A    between atoms: _152  and  _153
REMARK   67  A    between atoms: _159  and  _161
REMARK   68  A    between atoms: _161  and  _162
REMARK   69  A    between atoms: _161  and  _164
REMARK   70  A    between atoms: _164  and  _165
REMARK   71  A    between atoms: _168  and  _170
REMARK   72  A    between atoms: _170  and  _171
REMARK   73  A    between atoms: _170  and  _173
REMARK   74  A    between atoms: _176  and  _178
REMARK   75  A    between atoms: _178  and  _179
REMARK   76  A    between atoms: _178  and  _181
REMARK   77  A    between atoms: _181  and  _182
REMARK   78  A    between atoms: _185  and  _187
REMARK   79  A    between atoms: _187  and  _188
REMARK   80  A    between atoms: _187  and  _190
REMARK   81  A    between atoms: _190  and  _191
REMARK   82  A    between atoms: _195  and  _196
REMARK   83  A    between atoms: _201  and  _203
REMARK   84  A    between atoms: _203  and  _204
REMARK   85  A    between atoms: _203  and  _206
REMARK   86  A    between atoms: _209  and  _211
REMARK   87  A    between atoms: _211  and  _212
REMARK   88  A    between atoms: _211  and  _214
REMARK   89  A    between atoms: _214  and  _215
REMARK   90  A    between atoms: _220  and  _222
REMARK   91  A    between atoms: _222  and  _223
REMARK   92  A    between atoms: _222  and  _225
REMARK   93  A    between atoms: _225  and  _226
REMARK   94  A    between atoms: _229  and  _231
REMARK   95  A    between atoms: _231  and  _232
REMARK   96  A    between atoms: _231  and  _234
REMARK   97  A    between atoms: _234  and  _235
REMARK   98  A    between atoms: _238  and  _240
REMARK   99  A    between atoms: _240  and  _241
REMARK  100  A    between atoms: _243  and  _245
REMARK  101  A    between atoms: _245  and  _246
REMARK  102  A    between atoms: _245  and  _248
REMARK  103  A    between atoms: _248  and  _249
REMARK  104  A    between atoms: _249  and  _250
REMARK  105  A    between atoms: _250  and  _251
REMARK  106  A    between atoms: _260  and  _262
REMARK  107  A    between atoms: _262  and  _263
REMARK  108  A    between atoms: _262  and  _265
REMARK  109  A    between atoms: _265  and  _266
REMARK  110  A    between atoms: _271  and  _273
REMARK  111  A    between atoms: _273  and  _274
REMARK  112  A    between atoms: _273  and  _276
REMARK  113  A    between atoms: _276  and  _277
REMARK  114  A    between atoms: _277  and  _278
REMARK  115  A    between atoms: _278  and  _279
REMARK  116  A    between atoms: _288  and  _290
REMARK  117  A    between atoms: _290  and  _291
REMARK  118  A    between atoms: _290  and  _293
REMARK  119  A    between atoms: _293  and  _294
REMARK  120  A    between atoms: _297  and  _299
REMARK  121  A    between atoms: _299  and  _300
REMARK  122  A    between atoms: _299  and  _302
REMARK  123  A    between atoms: _302  and  _303
REMARK  124  A    between atoms: _306  and  _308
REMARK  125  A    between atoms: _308  and  _309
REMARK  126  A    between atoms: _308  and  _311
REMARK  127  A    between atoms: _311  and  _312
REMARK  128  A    between atoms: _315  and  _317
REMARK  129  A    between atoms: _317  and  _318
REMARK  130  A    between atoms: _317  and  _320
REMARK  131  A    between atoms: _320  and  _321
REMARK  132  A    between atoms: _324  and  _326
REMARK  133  A    between atoms: _326  and  _327
REMARK  134  A    between atoms: _329  and  _331
REMARK  135  A    between atoms: _331  and  _332
REMARK  136  A    between atoms: _335  and  _337
REMARK  137  A    between atoms: _337  and  _338
REMARK  138  A    between atoms: _337  and  _340
REMARK  139  A    between atoms: _340  and  _341
REMARK  140  A    between atoms: _344  and  _346
REMARK  141  A    between atoms: _346  and  _347
REMARK  142  A    between atoms: _346  and  _349
REMARK  143  A    between atoms: _349  and  _350
REMARK  144  A    between atoms: _353  and  _355
REMARK  145  A    between atoms: _355  and  _356
REMARK  146  A    between atoms: _355  and  _358
REMARK  147  A    between atoms: _358  and  _359
REMARK  148  A    between atoms: _362  and  _364
REMARK  149  A    between atoms: _364  and  _365
REMARK  150  A    between atoms: _364  and  _367
REMARK  151  A    between atoms: _370  and  _372
REMARK  152  A    between atoms: _372  and  _373
REMARK  153  A    between atoms: _372  and  _375
REMARK  154  A    between atoms: _375  and  _376
REMARK  155  A    between atoms: _376  and  _377
REMARK  156  A    between atoms: _377  and  _378
REMARK  157  A    between atoms: _378  and  _379
REMARK  158  A    between atoms: _383  and  _385
REMARK  159  A    between atoms: _385  and  _386
REMARK  160  A    between atoms: _385  and  _388
REMARK  161  A    between atoms: _388  and  _389
REMARK  162  A    between atoms: _389  and  _390
REMARK  163  A    between atoms: _392  and  _394
REMARK  164  A    between atoms: _394  and  _395
REMARK  165  A    between atoms: _394  and  _397
REMARK  166  A    between atoms: _397  and  _398
REMARK  167  A    between atoms: _401  and  _403
REMARK  168  A    between atoms: _403  and  _404
REMARK  169  A    between atoms: _406  and  _408
REMARK  170  A    between atoms: _408  and  _409
REMARK  171  A    between atoms: _411  and  _413
REMARK  172  A    between atoms: _413  and  _414
REMARK  173  A    between atoms: _413  and  _416
REMARK  174  A    between atoms: _416  and  _417
REMARK  175  A    between atoms: _420  and  _422
REMARK  176  A    between atoms: _422  and  _423
REMARK  177  A    between atoms: _425  and  _427
REMARK  178  A    between atoms: _427  and  _428
REMARK  179  A    between atoms: _430  and  _432
REMARK  180  A    between atoms: _432  and  _433
REMARK  181  A    between atoms: _432  and  _435
REMARK  182  A    between atoms: _435  and  _436
REMARK  183  A    between atoms: _442  and  _444
REMARK  184  A    between atoms: _444  and  _445
REMARK  185  A    between atoms: _444  and  _447
REMARK  186  A    between atoms: _447  and  _448
REMARK  187  A    between atoms: _451  and  _453
REMARK  188  A    between atoms: _453  and  _454
REMARK  189  A    between atoms: _453  and  _456
REMARK  190  A    between atoms: _456  and  _457
REMARK  191  A    between atoms: _460  and  _462
REMARK  192  A    between atoms: _462  and  _463
REMARK  193  A    between atoms: _462  and  _465
REMARK  194  A    between atoms: _465  and  _466
REMARK  195  A    between atoms: _470  and  _471
REMARK  196  A    between atoms: _476  and  _478
REMARK  197  A    between atoms: _478  and  _479
REMARK  198  A    between atoms: _478  and  _481
REMARK  199  A    between atoms: _484  and  _486
REMARK  200  A    between atoms: _486  and  _487
REMARK  201  A    between atoms: _486  and  _489
REMARK  202  A    between atoms: _489  and  _490
REMARK  203  A    between atoms: _495  and  _497
REMARK  204  A    between atoms: _497  and  _498
REMARK  205  A    between atoms: _497  and  _500
REMARK  206  A    between atoms: _500  and  _501
REMARK  207  A    between atoms: _504  and  _506
REMARK  208  A    between atoms: _506  and  _507
REMARK  209  A    between atoms: _506  and  _509
REMARK  210  A    between atoms: _509  and  _510
REMARK  211  A    between atoms: _513  and  _515
REMARK  212  A    between atoms: _515  and  _516
REMARK  213  A    between atoms: _518  and  _520
REMARK  214  A    between atoms: _520  and  _521
REMARK  215  A    between atoms: _520  and  _523
REMARK  216  A    between atoms: _523  and  _524
REMARK  217  A    between atoms: _524  and  _525
REMARK  218  A    between atoms: _525  and  _526
REMARK  219  A    between atoms: _535  and  _537
REMARK  220  A    between atoms: _537  and  _538
REMARK  221  A    between atoms: _537  and  _540
REMARK  222  A    between atoms: _540  and  _541
REMARK                            x       y       z     vdW  Elec       q    Type
REMARK                         _______ _______ _______ _____ _____    ______ ____
ROOT
ATOM      1  CA  ILE A   5      17.097  32.357   9.326  0.00  0.00    +0.149 C 
ENDROOT
BRANCH   1   3
ATOM      2  C   GLY A   4      18.927  31.171   8.299  0.00  0.00    +0.243 C 
ATOM      3  N   ILE A   5      18.464  31.876   9.322  0.00  0.00    -0.297 N 
ATOM      4  H   ILE A   5      19.087  32.085  10.128  0.00  0.00    +0.150 HD
ATOM      5  O   GLY A   4      18.295  31.005   7.238  0.00  0.00    -0.273 OA
BRANCH   2   6
ATOM      6  CA  GLY A   4      20.318  30.603   8.484  0.00  0.00    +0.176 C 
BRANCH   6   9
ATOM      7  C   GLY A   3      21.331  29.063   6.904  0.00  0.00    +0.243 C 
ATOM      8  O   GLY A   3      21.243  28.126   7.681  0.00  0.00    -0.273 OA
ATOM      9  N   GLY A   4      20.910  30.280   7.206  0.00  0.00    -0.295 N 
ATOM     10  H   GLY A   4      21.009  31.034   6.496  0.00  0.00    +0.150 HD
BRANCH   7  11
ATOM     11  CA  GLY A   3      21.900  28.866   5.509  0.00  0.00    +0.176 C 
BRANCH  11  13
ATOM     12  C   ILE A   2      24.298  28.653   5.069  0.00  0.00    +0.241 C 
ATOM     13  N   GLY A   3      23.159  28.113   5.486  0.00  0.00    -0.295 N 
ATOM     14  H   GLY A   3      23.159  27.124   5.807  0.00  0.00    +0.150 HD
ATOM     15  O   ILE A   2      24.407  29.841   4.729  0.00  0.00    -0.273 OA
BRANCH  12  16
ATOM     16  CA  ILE A   2      25.505  27.718   5.050  0.00  0.00    +0.148 C 
BRANCH  16  18
ATOM     17  C   MET A   1      27.079  27.382   3.218  0.00  0.00    +0.238 C 
ATOM     18  N   ILE A   2      26.529  28.182   4.129  0.00  0.00    -0.297 N 
ATOM     19  H   ILE A   2      26.843  29.172   4.183  0.00  0.00    +0.150 HD
ATOM     20  O   MET A   1      26.885  26.169   3.172  0.00  0.00    -0.274 OA
BRANCH  17  21
ATOM     21  CA  MET A   1      28.005  28.048   2.224  0.00  0.00    +0.146 C 
BRANCH  21  22
ATOM     22  N   MET A   1      29.172  27.210   1.979  0.00  0.00    -0.238 NA
ATOM     23  H   MET A   1      29.030  26.225   1.678  0.00  0.00    +0.142 HD
ENDBRANCH  21  22
BRANCH  21  24
ATOM     24  CB  MET A   1      27.273  28.332   0.913  0.00  0.00    +0.038 C 
BRANCH  24  25
ATOM     25  CG  MET A   1      28.080  29.217  -0.009  0.00  0.00    +0.060 C 
BRANCH  25  26
ATOM     26  SD  MET A   1      27.241  29.664  -1.525  0.00  0.00    -0.139 S 
ATOM     27  CE  MET A   1      25.807  30.564  -0.901  0.00  0.00    +0.069 C 
ENDBRANCH  25  26
ENDBRANCH  24  25
ENDBRANCH  21  24
ENDBRANCH  17  21
ENDBRANCH  16  18
BRANCH  16  28
ATOM     28  CB  ILE A   2      26.050  27.548   6.481  0.00  0.00    +0.027 C 
ATOM     29  CG2 ILE A   2      27.141  26.488   6.504  0.00  0.00    +0.002 C 
BRANCH  28  30
ATOM     30  CG1 ILE A   2      26.534  28.890   7.057  0.00  0.00    +0.002 C 
ATOM     31  CD1 ILE A   2      26.866  28.806   8.541  0.00  0.00    +0.000 C 
ENDBRANCH  28  30
ENDBRANCH  16  28
ENDBRANCH  12  16
ENDBRANCH  11  13
ENDBRANCH   7  11
ENDBRANCH   6   9
ENDBRANCH   2   6
ENDBRANCH   1   3
BRANCH   1  32
ATOM     32  C   ILE A   5      16.906  33.425   8.254  0.00  0.00    +0.241 C 
ATOM     33  N   GLY A   6      17.966  34.167   7.949  0.00  0.00    -0.295 N 
ATOM     34  H   GLY A   6      18.882  33.938   8.384  0.00  0.00    +0.150 HD
ATOM     35  O   ILE A   5      15.825  33.547   7.694  0.00  0.00    -0.273 OA
BRANCH  33  36
ATOM     36  CA  GLY A   6      17.886  35.291   7.024  0.00  0.00    +0.176 C 
BRANCH  36  37
ATOM     37  C   GLY A   6      18.362  35.042   5.609  0.00  0.00    +0.243 C 
ATOM     38  N   GLY A   7      18.880  33.846   5.330  0.00  0.00    -0.295 N 
ATOM     39  H   GLY A   7      18.850  33.101   6.055  0.00  0.00    +0.150 HD
ATOM     40  O   GLY A   6      18.240  35.920   4.764  0.00  0.00    -0.273 OA
BRANCH  38  41
ATOM     41  CA  GLY A   7      19.486  33.554   4.040  0.00  0.00    +0.176 C 
BRANCH  41  42
ATOM     42  C   GLY A   7      20.812  32.835   4.191  0.00  0.00    +0.243 C 
ATOM     43  O   GLY A   7      21.153  32.354   5.278  0.00  0.00    -0.273 OA
ATOM     44  N   PHE A   8      21.587  32.817   3.111  0.00  0.00    -0.297 N 
ATOM     45  H   PHE A   8      21.285  33.340   2.264  0.00  0.00    +0.150 HD
BRANCH  44  46
ATOM     46  CA  PHE A   8      22.844  32.087   3.079  0.00  0.00    +0.153 C 
BRANCH  46  47
ATOM     47  C   PHE A   8      24.042  33.009   3.164  0.00  0.00    +0.241 C 
ATOM     48  N   ILE A   9      25.118  32.483   3.730  0.00  0.00    -0.298 N 
ATOM     49  H   ILE A   9      25.058  31.528   4.137  0.00  0.00    +0.150 HD
ATOM     50  O   PHE A   8      23.987  34.164   2.735  0.00  0.00    -0.273 OA
BRANCH  48  51
ATOM     51  CA  ILE A   9      26.382  33.203   3.799  0.00  0.00    +0.137 C 
BRANCH  51  52
ATOM     52  CB  ILE A   9      26.708  33.710   5.250  0.00  0.00    +0.026 C 
ATOM     53  CG2 ILE A   9      25.628  34.660   5.751  0.00  0.00    +0.002 C 
BRANCH  52  54
ATOM     54  CG1 ILE A   9      26.875  32.517   6.201  0.00  0.00    +0.002 C 
ATOM     55  CD1 ILE A   9      27.411  32.854   7.585  0.00  0.00    +0.000 C 
ENDBRANCH  52  54
ENDBRANCH  51  52
BRANCH  51  56
ATOM     56  C   ILE A   9      27.505  32.298   3.317  0.00  0.00    +0.227 C 
ATOM     57  O   ILE A   9      27.375  31.064   3.262  0.00  0.00    -0.286 OA
ENDBRANCH  51  56
ENDBRANCH  48  51
ENDBRANCH  46  47
BRANCH  46  58
ATOM     58  CB  PHE A   8      22.930  31.244   1.812  0.00  0.00    +0.055 C 
BRANCH  58  59
ATOM     59  CG  PHE A   8      22.084  30.018   1.867  0.00  0.00    -0.020 A 
ATOM     60  CD2 PHE A   8      22.665  28.761   1.967  0.00  0.00    -0.004 A 
ATOM     61  CE2 PHE A   8      21.882  27.628   2.030  0.00  0.00    -0.000 A 
ATOM     62  CZ  PHE A   8      20.511  27.738   2.005  0.00  0.00    -0.000 A 
ATOM     63  CE1 PHE A   8      19.917  28.979   1.920  0.00  0.00    -0.000 A 
ATOM     64  CD1 PHE A   8      20.702  30.115   1.849  0.00  0.00    -0.004 A 
ENDBRANCH  58  59
ENDBRANCH  46  58
ENDBRANCH  44  46
ENDBRANCH  41  42
ENDBRANCH  38  41
ENDBRANCH  36  37
ENDBRANCH  33  36
ENDBRANCH   1  32
BRANCH   1  65
ATOM     65  CB  ILE A   5      16.659  32.835  10.737  0.00  0.00    +0.027 C 
ATOM     66  CG2 ILE A   5      17.173  34.236  11.026  0.00  0.00    +0.002 C 
BRANCH  65  67
ATOM     67  CG1 ILE A   5      15.139  32.738  10.879  0.00  0.00    +0.002 C 
ATOM     68  CD1 ILE A   5      14.635  32.922  12.293  0.00  0.00    +0.000 C 
ENDBRANCH  65  67
ENDBRANCH   1  65
TORSDOF 29
REMARK  Name = ../refined-set-2016/3mxd/3mxd_pocket.pdb
REMARK  222 active torsions:
REMARK  status: ('A' for Active; 'I' for Inactive)
REMARK    1  A    between atoms: _1  and  _3
REMARK    2  A    between atoms: _3  and  _4
REMARK    3  A    between atoms: _3  and  _6
REMARK    4  A    between atoms: _6  and  _7
REMARK    5  A    between atoms: _7  and  _8
REMARK    6  A    between atoms: _8  and  _9
REMARK    7  A    between atoms: _18  and  _20
REMARK    8  A    between atoms: _20  and  _21
REMARK    9  A    between atoms: _20  and  _23
REMARK   10  A    between atoms: _23  and  _24
REMARK   11  A    between atoms: _27  and  _29
REMARK   12  A    between atoms: _29  and  _30
REMARK   13  A    between atoms: _29  and  _32
REMARK   14  A    between atoms: _32  and  _33
REMARK   15  A    between atoms: _36  and  _38
REMARK   16  A    between atoms: _38  and  _39
REMARK   17  A    between atoms: _38  and  _41
REMARK   18  A    between atoms: _41  and  _42
REMARK   19  A    between atoms: _45  and  _47
REMARK   20  A    between atoms: _47  and  _48
REMARK   21  A    between atoms: _47  and  _50
REMARK   22  A    between atoms: _50  and  _51
REMARK   23  A    between atoms: _54  and  _56
REMARK   24  A    between atoms: _56  and  _57
REMARK   25  A    between atoms: _59  and  _61
REMARK   26  A    between atoms: _61  and  _62
REMARK   27  A    between atoms: _65  and  _67
REMARK   28  A    between atoms: _67  and  _68
REMARK   29  A    between atoms: _67  and  _70
REMARK   30  A    between atoms: _70  and  _71
REMARK   31  A    between atoms: _74  and  _76
REMARK   32  A    between atoms: _76  and  _77
REMARK   33  A    between atoms: _76  and  _79
REMARK   34  A    between atoms: _79  and  _80
REMARK   35  A    between atoms: _83  and  _85
REMARK   36  A    between atoms: _85  and  _86
REMARK   37  A    between atoms: _85  and  _88
REMARK   38  A    between atoms: _88  and  _89
REMARK   39  A    between atoms: _92  and  _94
REMARK   40  A    between atoms: _94  and  _95
REMARK   41  A    between atoms: _94  and  _97
REMARK   42  A    between atoms: _100  and  _102
REMARK   43  A    between atoms: _102  and  _103
REMARK   44  A    between atoms: _102  and  _105
REMARK   45  A    between atoms: _105  and  _106
REMARK   46  A    between atoms: _106  and  _107
REMARK   47  A    between atoms: _109  and  _111
REMARK   48  A    between atoms: _111  and  _112
REMARK   49  A    between atoms: _111  and  _114
REMARK   50  A    between atoms: _114  and  _115
REMARK   51  A    between atoms: _118  and  _120
REMARK   52  A    between atoms: _120  and  _121
REMARK   53  A    between atoms: _123  and  _125
REMARK   54  A    between atoms: _125  and  _126
REMARK   55  A    between atoms: _128  and  _130
REMARK   56  A    between atoms: _130  and  _131
REMARK   57  A    between atoms: _130  and  _133
REMARK   58  A    between atoms: _133  and  _134
REMARK   59  A    between atoms: _137  and  _139
REMARK   60  A    between atoms: _139  and  _140
REMARK   61  A    between atoms: _142  and  _144
REMARK   62  A    between atoms: _144  and  _145
REMARK   63  A    between atoms: _147  and  _149
REMARK   64  A    between atoms: _149  and  _150
REMARK   65  A    between atoms: _149  and  _152
REMARK   66  A    between atoms: _152  and  _153
REMARK   67  A    between atoms: _159  and  _161
REMARK   68  A    between atoms: _161  and  _162
REMARK   69  A    between atoms: _161  and  _164
REMARK   70  A    between atoms: _164  and  _165
REMARK   71  A    between atoms: _168  and  _170
REMARK   72  A    between atoms: _170  and  _171
REMARK   73  A    between atoms: _170  and  _173
REMARK   74  A    between atoms: _176  and  _178
REMARK   75  A    between atoms: _178  and  _179
REMARK   76  A    between atoms: _178  and  _181
REMARK   77  A    between atoms: _181  and  _182
REMARK   78  A    between atoms: _185  and  _187
REMARK   79  A    between atoms: _187  and  _188
REMARK   80  A    between atoms: _187  and  _190
REMARK   81  A    between atoms: _190  and  _191
REMARK   82  A    between atoms: _195  and  _196
REMARK   83  A    between atoms: _201  and  _203
REMARK   84  A    between atoms: _203  and  _204
REMARK   85  A    between atoms: _203  and  _206
REMARK   86  A    between atoms: _209  and  _211
REMARK   87  A    between atoms: _211  and  _212
REMARK   88  A    between atoms: _211  and  _214
REMARK   89  A    between atoms: _214  and  _215
REMARK   90  A    between atoms: _220  and  _222
REMARK   91  A    between atoms: _222  and  _223
REMARK   92  A    between atoms: _222  and  _225
REMARK   93  A    between atoms: _225  and  _226
REMARK   94  A    between atoms: _229  and  _231
REMARK   95  A    between atoms: _231  and  _232
REMARK   96  A    between atoms: _231  and  _234
REMARK   97  A    between atoms: _234  and  _235
REMARK   98  A    between atoms: _238  and  _240
REMARK   99  A    between atoms: _240  and  _241
REMARK  100  A    between atoms: _243  and  _245
REMARK  101  A    between atoms: _245  and  _246
REMARK  102  A    between atoms: _245  and  _248
REMARK  103  A    between atoms: _248  and  _249
REMARK  104  A    between atoms: _249  and  _250
REMARK  105  A    between atoms: _250  and  _251
REMARK  106  A    between atoms: _260  and  _262
REMARK  107  A    between atoms: _262  and  _263
REMARK  108  A    between atoms: _262  and  _265
REMARK  109  A    between atoms: _265  and  _266
REMARK  110  A    between atoms: _271  and  _273
REMARK  111  A    between atoms: _273  and  _274
REMARK  112  A    between atoms: _273  and  _276
REMARK  113  A    between atoms: _276  and  _277
REMARK  114  A    between atoms: _277  and  _278
REMARK  115  A    between atoms: _278  and  _279
REMARK  116  A    between atoms: _288  and  _290
REMARK  117  A    between atoms: _290  and  _291
REMARK  118  A    between atoms: _290  and  _293
REMARK  119  A    between atoms: _293  and  _294
REMARK  120  A    between atoms: _297  and  _299
REMARK  121  A    between atoms: _299  and  _300
REMARK  122  A    between atoms: _299  and  _302
REMARK  123  A    between atoms: _302  and  _303
REMARK  124  A    between atoms: _306  and  _308
REMARK  125  A    between atoms: _308  and  _309
REMARK  126  A    between atoms: _308  and  _311
REMARK  127  A    between atoms: _311  and  _312
REMARK  128  A    between atoms: _315  and  _317
REMARK  129  A    between atoms: _317  and  _318
REMARK  130  A    between atoms: _317  and  _320
REMARK  131  A    between atoms: _320  and  _321
REMARK  132  A    between atoms: _324  and  _326
REMARK  133  A    between atoms: _326  and  _327
REMARK  134  A    between atoms: _329  and  _331
REMARK  135  A    between atoms: _331  and  _332
REMARK  136  A    between atoms: _335  and  _337
REMARK  137  A    between atoms: _337  and  _338
REMARK  138  A    between atoms: _337  and  _340
REMARK  139  A    between atoms: _340  and  _341
REMARK  140  A    between atoms: _344  and  _346
REMARK  141  A    between atoms: _346  and  _347
REMARK  142  A    between atoms: _346  and  _349
REMARK  143  A    between atoms: _349  and  _350
REMARK  144  A    between atoms: _353  and  _355
REMARK  145  A    between atoms: _355  and  _356
REMARK  146  A    between atoms: _355  and  _358
REMARK  147  A    between atoms: _358  and  _359
REMARK  148  A    between atoms: _362  and  _364
REMARK  149  A    between atoms: _364  and  _365
REMARK  150  A    between atoms: _364  and  _367
REMARK  151  A    between atoms: _370  and  _372
REMARK  152  A    between atoms: _372  and  _373
REMARK  153  A    between atoms: _372  and  _375
REMARK  154  A    between atoms: _375  and  _376
REMARK  155  A    between atoms: _376  and  _377
REMARK  156  A    between atoms: _377  and  _378
REMARK  157  A    between atoms: _378  and  _379
REMARK  158  A    between atoms: _383  and  _385
REMARK  159  A    between atoms: _385  and  _386
REMARK  160  A    between atoms: _385  and  _388
REMARK  161  A    between atoms: _388  and  _389
REMARK  162  A    between atoms: _389  and  _390
REMARK  163  A    between atoms: _392  and  _394
REMARK  164  A    between atoms: _394  and  _395
REMARK  165  A    between atoms: _394  and  _397
REMARK  166  A    between atoms: _397  and  _398
REMARK  167  A    between atoms: _401  and  _403
REMARK  168  A    between atoms: _403  and  _404
REMARK  169  A    between atoms: _406  and  _408
REMARK  170  A    between atoms: _408  and  _409
REMARK  171  A    between atoms: _411  and  _413
REMARK  172  A    between atoms: _413  and  _414
REMARK  173  A    between atoms: _413  and  _416
REMARK  174  A    between atoms: _416  and  _417
REMARK  175  A    between atoms: _420  and  _422
REMARK  176  A    between atoms: _422  and  _423
REMARK  177  A    between atoms: _425  and  _427
REMARK  178  A    between atoms: _427  and  _428
REMARK  179  A    between atoms: _430  and  _432
REMARK  180  A    between atoms: _432  and  _433
REMARK  181  A    between atoms: _432  and  _435
REMARK  182  A    between atoms: _435  and  _436
REMARK  183  A    between atoms: _442  and  _444
REMARK  184  A    between atoms: _444  and  _445
REMARK  185  A    between atoms: _444  and  _447
REMARK  186  A    between atoms: _447  and  _448
REMARK  187  A    between atoms: _451  and  _453
REMARK  188  A    between atoms: _453  and  _454
REMARK  189  A    between atoms: _453  and  _456
REMARK  190  A    between atoms: _456  and  _457
REMARK  191  A    between atoms: _460  and  _462
REMARK  192  A    between atoms: _462  and  _463
REMARK  193  A    between atoms: _462  and  _465
REMARK  194  A    between atoms: _465  and  _466
REMARK  195  A    between atoms: _470  and  _471
REMARK  196  A    between atoms: _476  and  _478
REMARK  197  A    between atoms: _478  and  _479
REMARK  198  A    between atoms: _478  and  _481
REMARK  199  A    between atoms: _484  and  _486
REMARK  200  A    between atoms: _486  and  _487
REMARK  201  A    between atoms: _486  and  _489
REMARK  202  A    between atoms: _489  and  _490
REMARK  203  A    between atoms: _495  and  _497
REMARK  204  A    between atoms: _497  and  _498
REMARK  205  A    between atoms: _497  and  _500
REMARK  206  A    between atoms: _500  and  _501
REMARK  207  A    between atoms: _504  and  _506
REMARK  208  A    between atoms: _506  and  _507
REMARK  209  A    between atoms: _506  and  _509
REMARK  210  A    between atoms: _509  and  _510
REMARK  211  A    between atoms: _513  and  _515
REMARK  212  A    between atoms: _515  and  _516
REMARK  213  A    between atoms: _518  and  _520
REMARK  214  A    between atoms: _520  and  _521
REMARK  215  A    between atoms: _520  and  _523
REMARK  216  A    between atoms: _523  and  _524
REMARK  217  A    between atoms: _524  and  _525
REMARK  218  A    between atoms: _525  and  _526
REMARK  219  A    between atoms: _535  and  _537
REMARK  220  A    between atoms: _537  and  _538
REMARK  221  A    between atoms: _537  and  _540
REMARK  222  A    between atoms: _540  and  _541
REMARK                            x       y       z     vdW  Elec       q    Type
REMARK                         _______ _______ _______ _____ _____    ______ ____
ROOT
ATOM      1  CA  VAL A   1      32.166  30.736   5.283  0.00  0.00    +0.133 C 
ENDROOT
BRANCH   1   2
ATOM      2  CB  VAL A   1      31.452  29.959   6.422  0.00  0.00    +0.023 C 
ATOM      3  CG2 VAL A   1      30.294  30.782   6.978  0.00  0.00    +0.002 C 
ATOM      4  CG1 VAL A   1      30.969  28.587   5.939  0.00  0.00    +0.002 C 
ENDBRANCH   1   2
BRANCH   1   5
ATOM      5  N   VAL A   1      31.282  30.941   4.149  0.00  0.00    -0.239 NA
ATOM      6  H   VAL A   1      31.129  30.161   3.479  0.00  0.00    +0.142 HD
ENDBRANCH   1   5
BRANCH   1   7
ATOM      7  C   VAL A   1      33.428  30.000   4.856  0.00  0.00    +0.224 C 
ATOM      8  O   VAL A   1      33.494  29.429   3.760  0.00  0.00    -0.287 OA
ENDBRANCH   1   7
TORSDOF 3
REMARK  Name = ../refined-set-2016/3mxd/3mxd_pocket.pdb
REMARK  222 active torsions:
REMARK  status: ('A' for Active; 'I' for Inactive)
REMARK    1  A    between atoms: _1  and  _3
REMARK    2  A    between atoms: _3  and  _4
REMARK    3  A    between atoms: _3  and  _6
REMARK    4  A    between atoms: _6  and  _7
REMARK    5  A    between atoms: _7  and  _8
REMARK    6  A    between atoms: _8  and  _9
REMARK    7  A    between atoms: _18  and  _20
REMARK    8  A    between atoms: _20  and  _21
REMARK    9  A    between atoms: _20  and  _23
REMARK   10  A    between atoms: _23  and  _24
REMARK   11  A    between atoms: _27  and  _29
REMARK   12  A    between atoms: _29  and  _30
REMARK   13  A    between atoms: _29  and  _32
REMARK   14  A    between atoms: _32  and  _33
REMARK   15  A    between atoms: _36  and  _38
REMARK   16  A    between atoms: _38  and  _39
REMARK   17  A    between atoms: _38  and  _41
REMARK   18  A    between atoms: _41  and  _42
REMARK   19  A    between atoms: _45  and  _47
REMARK   20  A    between atoms: _47  and  _48
REMARK   21  A    between atoms: _47  and  _50
REMARK   22  A    between atoms: _50  and  _51
REMARK   23  A    between atoms: _54  and  _56
REMARK   24  A    between atoms: _56  and  _57
REMARK   25  A    between atoms: _59  and  _61
REMARK   26  A    between atoms: _61  and  _62
REMARK   27  A    between atoms: _65  and  _67
REMARK   28  A    between atoms: _67  and  _68
REMARK   29  A    between atoms: _67  and  _70
REMARK   30  A    between atoms: _70  and  _71
REMARK   31  A    between atoms: _74  and  _76
REMARK   32  A    between atoms: _76  and  _77
REMARK   33  A    between atoms: _76  and  _79
REMARK   34  A    between atoms: _79  and  _80
REMARK   35  A    between atoms: _83  and  _85
REMARK   36  A    between atoms: _85  and  _86
REMARK   37  A    between atoms: _85  and  _88
REMARK   38  A    between atoms: _88  and  _89
REMARK   39  A    between atoms: _92  and  _94
REMARK   40  A    between atoms: _94  and  _95
REMARK   41  A    between atoms: _94  and  _97
REMARK   42  A    between atoms: _100  and  _102
REMARK   43  A    between atoms: _102  and  _103
REMARK   44  A    between atoms: _102  and  _105
REMARK   45  A    between atoms: _105  and  _106
REMARK   46  A    between atoms: _106  and  _107
REMARK   47  A    between atoms: _109  and  _111
REMARK   48  A    between atoms: _111  and  _112
REMARK   49  A    between atoms: _111  and  _114
REMARK   50  A    between atoms: _114  and  _115
REMARK   51  A    between atoms: _118  and  _120
REMARK   52  A    between atoms: _120  and  _121
REMARK   53  A    between atoms: _123  and  _125
REMARK   54  A    between atoms: _125  and  _126
REMARK   55  A    between atoms: _128  and  _130
REMARK   56  A    between atoms: _130  and  _131
REMARK   57  A    between atoms: _130  and  _133
REMARK   58  A    between atoms: _133  and  _134
REMARK   59  A    between atoms: _137  and  _139
REMARK   60  A    between atoms: _139  and  _140
REMARK   61  A    between atoms: _142  and  _144
REMARK   62  A    between atoms: _144  and  _145
REMARK   63  A    between atoms: _147  and  _149
REMARK   64  A    between atoms: _149  and  _150
REMARK   65  A    between atoms: _149  and  _152
REMARK   66  A    between atoms: _152  and  _153
REMARK   67  A    between atoms: _159  and  _161
REMARK   68  A    between atoms: _161  and  _162
REMARK   69  A    between atoms: _161  and  _164
REMARK   70  A    between atoms: _164  and  _165
REMARK   71  A    between atoms: _168  and  _170
REMARK   72  A    between atoms: _170  and  _171
REMARK   73  A    between atoms: _170  and  _173
REMARK   74  A    between atoms: _176  and  _178
REMARK   75  A    between atoms: _178  and  _179
REMARK   76  A    between atoms: _178  and  _181
REMARK   77  A    between atoms: _181  and  _182
REMARK   78  A    between atoms: _185  and  _187
REMARK   79  A    between atoms: _187  and  _188
REMARK   80  A    between atoms: _187  and  _190
REMARK   81  A    between atoms: _190  and  _191
REMARK   82  A    between atoms: _195  and  _196
REMARK   83  A    between atoms: _201  and  _203
REMARK   84  A    between atoms: _203  and  _204
REMARK   85  A    between atoms: _203  and  _206
REMARK   86  A    between atoms: _209  and  _211
REMARK   87  A    between atoms: _211  and  _212
REMARK   88  A    between atoms: _211  and  _214
REMARK   89  A    between atoms: _214  and  _215
REMARK   90  A    between atoms: _220  and  _222
REMARK   91  A    between atoms: _222  and  _223
REMARK   92  A    between atoms: _222  and  _225
REMARK   93  A    between atoms: _225  and  _226
REMARK   94  A    between atoms: _229  and  _231
REMARK   95  A    between atoms: _231  and  _232
REMARK   96  A    between atoms: _231  and  _234
REMARK   97  A    between atoms: _234  and  _235
REMARK   98  A    between atoms: _238  and  _240
REMARK   99  A    between atoms: _240  and  _241
REMARK  100  A    between atoms: _243  and  _245
REMARK  101  A    between atoms: _245  and  _246
REMARK  102  A    between atoms: _245  and  _248
REMARK  103  A    between atoms: _248  and  _249
REMARK  104  A    between atoms: _249  and  _250
REMARK  105  A    between atoms: _250  and  _251
REMARK  106  A    between atoms: _260  and  _262
REMARK  107  A    between atoms: _262  and  _263
REMARK  108  A    between atoms: _262  and  _265
REMARK  109  A    between atoms: _265  and  _266
REMARK  110  A    between atoms: _271  and  _273
REMARK  111  A    between atoms: _273  and  _274
REMARK  112  A    between atoms: _273  and  _276
REMARK  113  A    between atoms: _276  and  _277
REMARK  114  A    between atoms: _277  and  _278
REMARK  115  A    between atoms: _278  and  _279
REMARK  116  A    between atoms: _288  and  _290
REMARK  117  A    between atoms: _290  and  _291
REMARK  118  A    between atoms: _290  and  _293
REMARK  119  A    between atoms: _293  and  _294
REMARK  120  A    between atoms: _297  and  _299
REMARK  121  A    between atoms: _299  and  _300
REMARK  122  A    between atoms: _299  and  _302
REMARK  123  A    between atoms: _302  and  _303
REMARK  124  A    between atoms: _306  and  _308
REMARK  125  A    between atoms: _308  and  _309
REMARK  126  A    between atoms: _308  and  _311
REMARK  127  A    between atoms: _311  and  _312
REMARK  128  A    between atoms: _315  and  _317
REMARK  129  A    between atoms: _317  and  _318
REMARK  130  A    between atoms: _317  and  _320
REMARK  131  A    between atoms: _320  and  _321
REMARK  132  A    between atoms: _324  and  _326
REMARK  133  A    between atoms: _326  and  _327
REMARK  134  A    between atoms: _329  and  _331
REMARK  135  A    between atoms: _331  and  _332
REMARK  136  A    between atoms: _335  and  _337
REMARK  137  A    between atoms: _337  and  _338
REMARK  138  A    between atoms: _337  and  _340
REMARK  139  A    between atoms: _340  and  _341
REMARK  140  A    between atoms: _344  and  _346
REMARK  141  A    between atoms: _346  and  _347
REMARK  142  A    between atoms: _346  and  _349
REMARK  143  A    between atoms: _349  and  _350
REMARK  144  A    between atoms: _353  and  _355
REMARK  145  A    between atoms: _355  and  _356
REMARK  146  A    between atoms: _355  and  _358
REMARK  147  A    between atoms: _358  and  _359
REMARK  148  A    between atoms: _362  and  _364
REMARK  149  A    between atoms: _364  and  _365
REMARK  150  A    between atoms: _364  and  _367
REMARK  151  A    between atoms: _370  and  _372
REMARK  152  A    between atoms: _372  and  _373
REMARK  153  A    between atoms: _372  and  _375
REMARK  154  A    between atoms: _375  and  _376
REMARK  155  A    between atoms: _376  and  _377
REMARK  156  A    between atoms: _377  and  _378
REMARK  157  A    between atoms: _378  and  _379
REMARK  158  A    between atoms: _383  and  _385
REMARK  159  A    between atoms: _385  and  _386
REMARK  160  A    between atoms: _385  and  _388
REMARK  161  A    between atoms: _388  and  _389
REMARK  162  A    between atoms: _389  and  _390
REMARK  163  A    between atoms: _392  and  _394
REMARK  164  A    between atoms: _394  and  _395
REMARK  165  A    between atoms: _394  and  _397
REMARK  166  A    between atoms: _397  and  _398
REMARK  167  A    between atoms: _401  and  _403
REMARK  168  A    between atoms: _403  and  _404
REMARK  169  A    between atoms: _406  and  _408
REMARK  170  A    between atoms: _408  and  _409
REMARK  171  A    between atoms: _411  and  _413
REMARK  172  A    between atoms: _413  and  _414
REMARK  173  A    between atoms: _413  and  _416
REMARK  174  A    between atoms: _416  and  _417
REMARK  175  A    between atoms: _420  and  _422
REMARK  176  A    between atoms: _422  and  _423
REMARK  177  A    between atoms: _425  and  _427
REMARK  178  A    between atoms: _427  and  _428
REMARK  179  A    between atoms: _430  and  _432
REMARK  180  A    between atoms: _432  and  _433
REMARK  181  A    between atoms: _432  and  _435
REMARK  182  A    between atoms: _435  and  _436
REMARK  183  A    between atoms: _442  and  _444
REMARK  184  A    between atoms: _444  and  _445
REMARK  185  A    between atoms: _444  and  _447
REMARK  186  A    between atoms: _447  and  _448
REMARK  187  A    between atoms: _451  and  _453
REMARK  188  A    between atoms: _453  and  _454
REMARK  189  A    between atoms: _453  and  _456
REMARK  190  A    between atoms: _456  and  _457
REMARK  191  A    between atoms: _460  and  _462
REMARK  192  A    between atoms: _462  and  _463
REMARK  193  A    between atoms: _462  and  _465
REMARK  194  A    between atoms: _465  and  _466
REMARK  195  A    between atoms: _470  and  _471
REMARK  196  A    between atoms: _476  and  _478
REMARK  197  A    between atoms: _478  and  _479
REMARK  198  A    between atoms: _478  and  _481
REMARK  199  A    between atoms: _484  and  _486
REMARK  200  A    between atoms: _486  and  _487
REMARK  201  A    between atoms: _486  and  _489
REMARK  202  A    between atoms: _489  and  _490
REMARK  203  A    between atoms: _495  and  _497
REMARK  204  A    between atoms: _497  and  _498
REMARK  205  A    between atoms: _497  and  _500
REMARK  206  A    between atoms: _500  and  _501
REMARK  207  A    between atoms: _504  and  _506
REMARK  208  A    between atoms: _506  and  _507
REMARK  209  A    between atoms: _506  and  _509
REMARK  210  A    between atoms: _509  and  _510
REMARK  211  A    between atoms: _513  and  _515
REMARK  212  A    between atoms: _515  and  _516
REMARK  213  A    between atoms: _518  and  _520
REMARK  214  A    between atoms: _520  and  _521
REMARK  215  A    between atoms: _520  and  _523
REMARK  216  A    between atoms: _523  and  _524
REMARK  217  A    between atoms: _524  and  _525
REMARK  218  A    between atoms: _525  and  _526
REMARK  219  A    between atoms: _535  and  _537
REMARK  220  A    between atoms: _537  and  _538
REMARK  221  A    between atoms: _537  and  _540
REMARK  222  A    between atoms: _540  and  _541
REMARK                            x       y       z     vdW  Elec       q    Type
REMARK                         _______ _______ _______ _____ _____    ______ ____
ROOT
ATOM      1  CA  LEU A   1      33.242  27.608  10.187  0.00  0.00    +0.133 C 
ENDROOT
BRANCH   1   2
ATOM      2  N   LEU A   1      33.567  26.739  11.305  0.00  0.00    -0.239 NA
ATOM      3  H   LEU A   1      32.849  26.599  12.045  0.00  0.00    +0.142 HD
ENDBRANCH   1   2
BRANCH   1   4
ATOM      4  C   LEU A   1      33.418  29.056  10.628  0.00  0.00    +0.224 C 
ATOM      5  O   LEU A   1      33.015  29.420  11.726  0.00  0.00    -0.287 OA
ENDBRANCH   1   4
BRANCH   1   6
ATOM      6  CB  LEU A   1      31.798  27.374   9.728  0.00  0.00    +0.025 C 
BRANCH   6   7
ATOM      7  CG  LEU A   1      31.401  25.921   9.453  0.00  0.00    +0.002 C 
ATOM      8  CD2 LEU A   1      29.942  25.872   9.043  0.00  0.00    +0.000 C 
ATOM      9  CD1 LEU A   1      32.280  25.303   8.374  0.00  0.00    +0.000 C 
ENDBRANCH   6   7
ENDBRANCH   1   6
TORSDOF 4
REMARK  Name = ../refined-set-2016/3mxd/3mxd_pocket.pdb
REMARK  222 active torsions:
REMARK  status: ('A' for Active; 'I' for Inactive)
REMARK    1  A    between atoms: _1  and  _3
REMARK    2  A    between atoms: _3  and  _4
REMARK    3  A    between atoms: _3  and  _6
REMARK    4  A    between atoms: _6  and  _7
REMARK    5  A    between atoms: _7  and  _8
REMARK    6  A    between atoms: _8  and  _9
REMARK    7  A    between atoms: _18  and  _20
REMARK    8  A    between atoms: _20  and  _21
REMARK    9  A    between atoms: _20  and  _23
REMARK   10  A    between atoms: _23  and  _24
REMARK   11  A    between atoms: _27  and  _29
REMARK   12  A    between atoms: _29  and  _30
REMARK   13  A    between atoms: _29  and  _32
REMARK   14  A    between atoms: _32  and  _33
REMARK   15  A    between atoms: _36  and  _38
REMARK   16  A    between atoms: _38  and  _39
REMARK   17  A    between atoms: _38  and  _41
REMARK   18  A    between atoms: _41  and  _42
REMARK   19  A    between atoms: _45  and  _47
REMARK   20  A    between atoms: _47  and  _48
REMARK   21  A    between atoms: _47  and  _50
REMARK   22  A    between atoms: _50  and  _51
REMARK   23  A    between atoms: _54  and  _56
REMARK   24  A    between atoms: _56  and  _57
REMARK   25  A    between atoms: _59  and  _61
REMARK   26  A    between atoms: _61  and  _62
REMARK   27  A    between atoms: _65  and  _67
REMARK   28  A    between atoms: _67  and  _68
REMARK   29  A    between atoms: _67  and  _70
REMARK   30  A    between atoms: _70  and  _71
REMARK   31  A    between atoms: _74  and  _76
REMARK   32  A    between atoms: _76  and  _77
REMARK   33  A    between atoms: _76  and  _79
REMARK   34  A    between atoms: _79  and  _80
REMARK   35  A    between atoms: _83  and  _85
REMARK   36  A    between atoms: _85  and  _86
REMARK   37  A    between atoms: _85  and  _88
REMARK   38  A    between atoms: _88  and  _89
REMARK   39  A    between atoms: _92  and  _94
REMARK   40  A    between atoms: _94  and  _95
REMARK   41  A    between atoms: _94  and  _97
REMARK   42  A    between atoms: _100  and  _102
REMARK   43  A    between atoms: _102  and  _103
REMARK   44  A    between atoms: _102  and  _105
REMARK   45  A    between atoms: _105  and  _106
REMARK   46  A    between atoms: _106  and  _107
REMARK   47  A    between atoms: _109  and  _111
REMARK   48  A    between atoms: _111  and  _112
REMARK   49  A    between atoms: _111  and  _114
REMARK   50  A    between atoms: _114  and  _115
REMARK   51  A    between atoms: _118  and  _120
REMARK   52  A    between atoms: _120  and  _121
REMARK   53  A    between atoms: _123  and  _125
REMARK   54  A    between atoms: _125  and  _126
REMARK   55  A    between atoms: _128  and  _130
REMARK   56  A    between atoms: _130  and  _131
REMARK   57  A    between atoms: _130  and  _133
REMARK   58  A    between atoms: _133  and  _134
REMARK   59  A    between atoms: _137  and  _139
REMARK   60  A    between atoms: _139  and  _140
REMARK   61  A    between atoms: _142  and  _144
REMARK   62  A    between atoms: _144  and  _145
REMARK   63  A    between atoms: _147  and  _149
REMARK   64  A    between atoms: _149  and  _150
REMARK   65  A    between atoms: _149  and  _152
REMARK   66  A    between atoms: _152  and  _153
REMARK   67  A    between atoms: _159  and  _161
REMARK   68  A    between atoms: _161  and  _162
REMARK   69  A    between atoms: _161  and  _164
REMARK   70  A    between atoms: _164  and  _165
REMARK   71  A    between atoms: _168  and  _170
REMARK   72  A    between atoms: _170  and  _171
REMARK   73  A    between atoms: _170  and  _173
REMARK   74  A    between atoms: _176  and  _178
REMARK   75  A    between atoms: _178  and  _179
REMARK   76  A    between atoms: _178  and  _181
REMARK   77  A    between atoms: _181  and  _182
REMARK   78  A    between atoms: _185  and  _187
REMARK   79  A    between atoms: _187  and  _188
REMARK   80  A    between atoms: _187  and  _190
REMARK   81  A    between atoms: _190  and  _191
REMARK   82  A    between atoms: _195  and  _196
REMARK   83  A    between atoms: _201  and  _203
REMARK   84  A    between atoms: _203  and  _204
REMARK   85  A    between atoms: _203  and  _206
REMARK   86  A    between atoms: _209  and  _211
REMARK   87  A    between atoms: _211  and  _212
REMARK   88  A    between atoms: _211  and  _214
REMARK   89  A    between atoms: _214  and  _215
REMARK   90  A    between atoms: _220  and  _222
REMARK   91  A    between atoms: _222  and  _223
REMARK   92  A    between atoms: _222  and  _225
REMARK   93  A    between atoms: _225  and  _226
REMARK   94  A    between atoms: _229  and  _231
REMARK   95  A    between atoms: _231  and  _232
REMARK   96  A    between atoms: _231  and  _234
REMARK   97  A    between atoms: _234  and  _235
REMARK   98  A    between atoms: _238  and  _240
REMARK   99  A    between atoms: _240  and  _241
REMARK  100  A    between atoms: _243  and  _245
REMARK  101  A    between atoms: _245  and  _246
REMARK  102  A    between atoms: _245  and  _248
REMARK  103  A    between atoms: _248  and  _249
REMARK  104  A    between atoms: _249  and  _250
REMARK  105  A    between atoms: _250  and  _251
REMARK  106  A    between atoms: _260  and  _262
REMARK  107  A    between atoms: _262  and  _263
REMARK  108  A    between atoms: _262  and  _265
REMARK  109  A    between atoms: _265  and  _266
REMARK  110  A    between atoms: _271  and  _273
REMARK  111  A    between atoms: _273  and  _274
REMARK  112  A    between atoms: _273  and  _276
REMARK  113  A    between atoms: _276  and  _277
REMARK  114  A    between atoms: _277  and  _278
REMARK  115  A    between atoms: _278  and  _279
REMARK  116  A    between atoms: _288  and  _290
REMARK  117  A    between atoms: _290  and  _291
REMARK  118  A    between atoms: _290  and  _293
REMARK  119  A    between atoms: _293  and  _294
REMARK  120  A    between atoms: _297  and  _299
REMARK  121  A    between atoms: _299  and  _300
REMARK  122  A    between atoms: _299  and  _302
REMARK  123  A    between atoms: _302  and  _303
REMARK  124  A    between atoms: _306  and  _308
REMARK  125  A    between atoms: _308  and  _309
REMARK  126  A    between atoms: _308  and  _311
REMARK  127  A    between atoms: _311  and  _312
REMARK  128  A    between atoms: _315  and  _317
REMARK  129  A    between atoms: _317  and  _318
REMARK  130  A    between atoms: _317  and  _320
REMARK  131  A    between atoms: _320  and  _321
REMARK  132  A    between atoms: _324  and  _326
REMARK  133  A    between atoms: _326  and  _327
REMARK  134  A    between atoms: _329  and  _331
REMARK  135  A    between atoms: _331  and  _332
REMARK  136  A    between atoms: _335  and  _337
REMARK  137  A    between atoms: _337  and  _338
REMARK  138  A    between atoms: _337  and  _340
REMARK  139  A    between atoms: _340  and  _341
REMARK  140  A    between atoms: _344  and  _346
REMARK  141  A    between atoms: _346  and  _347
REMARK  142  A    between atoms: _346  and  _349
REMARK  143  A    between atoms: _349  and  _350
REMARK  144  A    between atoms: _353  and  _355
REMARK  145  A    between atoms: _355  and  _356
REMARK  146  A    between atoms: _355  and  _358
REMARK  147  A    between atoms: _358  and  _359
REMARK  148  A    between atoms: _362  and  _364
REMARK  149  A    between atoms: _364  and  _365
REMARK  150  A    between atoms: _364  and  _367
REMARK  151  A    between atoms: _370  and  _372
REMARK  152  A    between atoms: _372  and  _373
REMARK  153  A    between atoms: _372  and  _375
REMARK  154  A    between atoms: _375  and  _376
REMARK  155  A    between atoms: _376  and  _377
REMARK  156  A    between atoms: _377  and  _378
REMARK  157  A    between atoms: _378  and  _379
REMARK  158  A    between atoms: _383  and  _385
REMARK  159  A    between atoms: _385  and  _386
REMARK  160  A    between atoms: _385  and  _388
REMARK  161  A    between atoms: _388  and  _389
REMARK  162  A    between atoms: _389  and  _390
REMARK  163  A    between atoms: _392  and  _394
REMARK  164  A    between atoms: _394  and  _395
REMARK  165  A    between atoms: _394  and  _397
REMARK  166  A    between atoms: _397  and  _398
REMARK  167  A    between atoms: _401  and  _403
REMARK  168  A    between atoms: _403  and  _404
REMARK  169  A    between atoms: _406  and  _408
REMARK  170  A    between atoms: _408  and  _409
REMARK  171  A    between atoms: _411  and  _413
REMARK  172  A    between atoms: _413  and  _414
REMARK  173  A    between atoms: _413  and  _416
REMARK  174  A    between atoms: _416  and  _417
REMARK  175  A    between atoms: _420  and  _422
REMARK  176  A    between atoms: _422  and  _423
REMARK  177  A    between atoms: _425  and  _427
REMARK  178  A    between atoms: _427  and  _428
REMARK  179  A    between atoms: _430  and  _432
REMARK  180  A    between atoms: _432  and  _433
REMARK  181  A    between atoms: _432  and  _435
REMARK  182  A    between atoms: _435  and  _436
REMARK  183  A    between atoms: _442  and  _444
REMARK  184  A    between atoms: _444  and  _445
REMARK  185  A    between atoms: _444  and  _447
REMARK  186  A    between atoms: _447  and  _448
REMARK  187  A    between atoms: _451  and  _453
REMARK  188  A    between atoms: _453  and  _454
REMARK  189  A    between atoms: _453  and  _456
REMARK  190  A    between atoms: _456  and  _457
REMARK  191  A    between atoms: _460  and  _462
REMARK  192  A    between atoms: _462  and  _463
REMARK  193  A    between atoms: _462  and  _465
REMARK  194  A    between atoms: _465  and  _466
REMARK  195  A    between atoms: _470  and  _471
REMARK  196  A    between atoms: _476  and  _478
REMARK  197  A    between atoms: _478  and  _479
REMARK  198  A    between atoms: _478  and  _481
REMARK  199  A    between atoms: _484  and  _486
REMARK  200  A    between atoms: _486  and  _487
REMARK  201  A    between atoms: _486  and  _489
REMARK  202  A    between atoms: _489  and  _490
REMARK  203  A    between atoms: _495  and  _497
REMARK  204  A    between atoms: _497  and  _498
REMARK  205  A    between atoms: _497  and  _500
REMARK  206  A    between atoms: _500  and  _501
REMARK  207  A    between atoms: _504  and  _506
REMARK  208  A    between atoms: _506  and  _507
REMARK  209  A    between atoms: _506  and  _509
REMARK  210  A    between atoms: _509  and  _510
REMARK  211  A    between atoms: _513  and  _515
REMARK  212  A    between atoms: _515  and  _516
REMARK  213  A    between atoms: _518  and  _520
REMARK  214  A    between atoms: _520  and  _521
REMARK  215  A    between atoms: _520  and  _523
REMARK  216  A    between atoms: _523  and  _524
REMARK  217  A    between atoms: _524  and  _525
REMARK  218  A    between atoms: _525  and  _526
REMARK  219  A    between atoms: _535  and  _537
REMARK  220  A    between atoms: _537  and  _538
REMARK  221  A    between atoms: _537  and  _540
REMARK  222  A    between atoms: _540  and  _541
REMARK                            x       y       z     vdW  Elec       q    Type
REMARK                         _______ _______ _______ _____ _____    ______ ____
ROOT
ATOM      1  C   ILE A   5      28.655  28.563  18.053  0.00  0.00    +0.241 C 
ATOM      2  N   ILE A   6      28.449  27.851  19.157  0.00  0.00    -0.297 N 
ATOM      3  H   ILE A   6      27.953  28.294  19.956  0.00  0.00    +0.150 HD
ATOM      4  O   ILE A   5      29.358  28.181  17.112  0.00  0.00    -0.273 OA
ENDROOT
BRANCH   2   5
ATOM      5  CA  ILE A   6      28.896  26.470  19.284  0.00  0.00    +0.149 C 
BRANCH   5   6
ATOM      6  C   ILE A   6      27.738  25.562  18.913  0.00  0.00    +0.241 C 
ATOM      7  O   ILE A   6      26.736  25.483  19.634  0.00  0.00    -0.273 OA
ATOM      8  N   GLY A   7      27.876  24.878  17.776  0.00  0.00    -0.295 N 
ATOM      9  H   GLY A   7      28.759  24.968  17.235  0.00  0.00    +0.150 HD
BRANCH   8  10
ATOM     10  CA  GLY A   7      26.822  24.009  17.274  0.00  0.00    +0.176 C 
BRANCH  10  11
ATOM     11  C   GLY A   7      26.983  22.584  17.727  0.00  0.00    +0.243 C 
ATOM     12  O   GLY A   7      27.941  22.243  18.438  0.00  0.00    -0.273 OA
ATOM     13  N   ARG A   8      26.075  21.729  17.265  0.00  0.00    -0.297 N 
ATOM     14  H   ARG A   8      25.397  22.047  16.544  0.00  0.00    +0.150 HD
BRANCH  13  15
ATOM     15  CA  ARG A   8      26.010  20.356  17.748  0.00  0.00    +0.149 C 
BRANCH  15  16
ATOM     16  C   ARG A   8      27.256  19.529  17.440  0.00  0.00    +0.241 C 
ATOM     17  O   ARG A   8      27.552  18.586  18.168  0.00  0.00    -0.273 OA
ATOM     18  N   ASN A   9      27.988  19.848  16.377  0.00  0.00    -0.298 N 
ATOM     19  H   ASN A   9      27.712  20.647  15.771  0.00  0.00    +0.150 HD
BRANCH  18  20
ATOM     20  CA  ASN A   9      29.190  19.062  16.066  0.00  0.00    +0.146 C 
BRANCH  20  21
ATOM     21  C   ASN A   9      30.187  19.064  17.237  0.00  0.00    +0.227 C 
ATOM     22  O   ASN A   9      30.884  18.079  17.445  0.00  0.00    -0.286 OA
ENDBRANCH  20  21
BRANCH  20  23
ATOM     23  CB  ASN A   9      29.862  19.538  14.766  0.00  0.00    +0.112 C 
BRANCH  23  24
ATOM     24  CG  ASN A   9      30.563  20.864  14.926  0.00  0.00    +0.222 C 
ATOM     25  OD1 ASN A   9      29.956  21.832  15.377  0.00  0.00    -0.275 OA
ATOM     26  ND2 ASN A   9      31.852  20.925  14.539  0.00  0.00    -0.329 N 
ATOM     27 HD21 ASN A   9      32.376  21.820  14.616  0.00  0.00    +0.145 HD
ATOM     28 HD22 ASN A   9      32.323  20.077  14.163  0.00  0.00    +0.145 HD
ENDBRANCH  23  24
ENDBRANCH  20  23
ENDBRANCH  18  20
ENDBRANCH  15  16
BRANCH  15  29
ATOM     29  CB  ARG A   8      24.759  19.647  17.215  0.00  0.00    +0.033 C 
BRANCH  29  30
ATOM     30  CG  ARG A   8      23.459  20.181  17.776  0.00  0.00    +0.045 C 
BRANCH  30  31
ATOM     31  CD  ARG A   8      22.245  19.399  17.294  0.00  0.00    +0.174 C 
BRANCH  31  32
ATOM     32  NE  ARG A   8      22.154  19.427  15.838  0.00  0.00    -0.265 N 
ATOM     33  HE  ARG A   8      21.744  20.281  15.409  0.00  0.00    +0.259 HD
ATOM     34  CZ  ARG A   8      22.546  18.463  15.005  0.00  0.00    +0.342 C 
ATOM     35  NH2 ARG A   8      23.061  17.317  15.437  0.00  0.00    -0.292 N 
ATOM     36 HH21 ARG A   8      23.170  17.148  16.457  0.00  0.00    +0.255 HD
ATOM     37 HH22 ARG A   8      23.355  16.589  14.755  0.00  0.00    +0.255 HD
ATOM     38  NH1 ARG A   8      22.438  18.676  13.704  0.00  0.00    -0.292 N 
ATOM     39 HH11 ARG A   8      22.055  19.578  13.355  0.00  0.00    +0.255 HD
ATOM     40 HH12 ARG A   8      22.736  17.942  13.030  0.00  0.00    +0.255 HD
ENDBRANCH  31  32
ENDBRANCH  30  31
ENDBRANCH  29  30
ENDBRANCH  15  29
ENDBRANCH  13  15
ENDBRANCH  10  11
ENDBRANCH   8  10
ENDBRANCH   5   6
BRANCH   5  41
ATOM     41  CB  ILE A   6      29.370  26.134  20.709  0.00  0.00    +0.027 C 
ATOM     42  CG2 ILE A   6      29.903  24.704  20.744  0.00  0.00    +0.002 C 
BRANCH  41  43
ATOM     43  CG1 ILE A   6      30.440  27.126  21.198  0.00  0.00    +0.002 C 
ATOM     44  CD1 ILE A   6      31.621  27.325  20.242  0.00  0.00    +0.000 C 
ENDBRANCH  41  43
ENDBRANCH   5  41
ENDBRANCH   2   5
BRANCH   1  45
ATOM     45  CA  ILE A   5      27.974  29.923  18.023  0.00  0.00    +0.149 C 
BRANCH  45  48
ATOM     46  C   ASN A   4      29.058  32.063  18.328  0.00  0.00    +0.241 C 
ATOM     47  O   ASN A   4      28.452  32.257  19.392  0.00  0.00    -0.273 OA
ATOM     48  N   ILE A   5      28.873  30.981  17.580  0.00  0.00    -0.297 N 
ATOM     49  H   ILE A   5      29.373  30.888  16.673  0.00  0.00    +0.150 HD
BRANCH  46  50
ATOM     50  CA  ASN A   4      30.042  33.090  17.815  0.00  0.00    +0.158 C 
BRANCH  50  52
ATOM     51  C   VAL A   3      28.311  34.581  16.971  0.00  0.00    +0.241 C 
ATOM     52  N   ASN A   4      29.379  34.395  17.743  0.00  0.00    -0.297 N 
ATOM     53  H   ASN A   4      29.749  35.189  18.304  0.00  0.00    +0.150 HD
ATOM     54  O   VAL A   3      27.917  33.735  16.166  0.00  0.00    -0.273 OA
BRANCH  51  55
ATOM     55  CA  VAL A   3      27.570  35.907  17.109  0.00  0.00    +0.149 C 
BRANCH  55  58
ATOM     56  C   PRO A   2      26.609  37.461  15.474  0.00  0.00    +0.241 C 
ATOM     57  O   PRO A   2      26.846  38.460  16.158  0.00  0.00    -0.273 OA
ATOM     58  N   VAL A   3      26.921  36.223  15.838  0.00  0.00    -0.297 N 
ATOM     59  H   VAL A   3      26.693  35.443  15.189  0.00  0.00    +0.150 HD
BRANCH  56  62
ATOM     60  C   THR A   1      27.340  36.246  12.733  0.00  0.00    +0.244 C 
ATOM     61  N   PRO A   2      26.098  36.498  13.188  0.00  0.00    -0.272 N 
ATOM     62  CA  PRO A   2      25.896  37.613  14.131  0.00  0.00    +0.152 C 
ATOM     63  CB  PRO A   2      24.374  37.623  14.358  0.00  0.00    +0.031 C 
ATOM     64  CG  PRO A   2      23.919  36.268  13.994  0.00  0.00    +0.024 C 
ATOM     65  CD  PRO A   2      24.823  35.821  12.874  0.00  0.00    +0.094 C 
ATOM     66  O   THR A   1      28.298  36.948  13.027  0.00  0.00    -0.273 OA
BRANCH  60  67
ATOM     67  CA  THR A   1      27.546  35.041  11.813  0.00  0.00    +0.172 C 
BRANCH  67  68
ATOM     68  CB  THR A   1      27.940  33.772  12.618  0.00  0.00    +0.135 C 
ATOM     69  CG2 THR A   1      29.308  33.917  13.272  0.00  0.00    +0.034 C 
BRANCH  68  70
ATOM     70  OG1 THR A   1      26.954  33.487  13.615  0.00  0.00    -0.383 OA
ATOM     71  HG1 THR A   1      26.883  34.254  14.236  0.00  0.00    +0.210 HD
ENDBRANCH  68  70
ENDBRANCH  67  68
BRANCH  67  72
ATOM     72  N   THR A   1      28.584  35.391  10.847  0.00  0.00    -0.236 NA
ATOM     73  H   THR A   1      29.540  35.001  10.973  0.00  0.00    +0.142 HD
ENDBRANCH  67  72
ENDBRANCH  60  67
ENDBRANCH  56  62
ENDBRANCH  55  58
BRANCH  55  74
ATOM     74  CB  VAL A   3      26.515  35.839  18.261  0.00  0.00    +0.027 C 
ATOM     75  CG2 VAL A   3      27.152  35.539  19.596  0.00  0.00    +0.002 C 
ATOM     76  CG1 VAL A   3      25.456  34.809  17.989  0.00  0.00    +0.002 C 
ENDBRANCH  55  74
ENDBRANCH  51  55
ENDBRANCH  50  52
BRANCH  50  77
ATOM     77  CB  ASN A   4      31.259  33.110  18.763  0.00  0.00    +0.114 C 
BRANCH  77  78
ATOM     78  CG  ASN A   4      32.341  34.074  18.322  0.00  0.00    +0.222 C 
ATOM     79  ND2 ASN A   4      32.976  34.721  19.288  0.00  0.00    -0.329 N 
ATOM     80 HD21 ASN A   4      32.720  34.553  20.282  0.00  0.00    +0.145 HD
ATOM     81 HD22 ASN A   4      33.730  35.397  19.052  0.00  0.00    +0.145 HD
ATOM     82  OD1 ASN A   4      32.606  34.237  17.127  0.00  0.00    -0.275 OA
ENDBRANCH  77  78
ENDBRANCH  50  77
ENDBRANCH  46  50
ENDBRANCH  45  48
BRANCH  45  83
ATOM     83  CB  ILE A   5      26.646  29.849  17.205  0.00  0.00    +0.027 C 
ATOM     84  CG2 ILE A   5      25.866  31.155  17.333  0.00  0.00    +0.002 C 
BRANCH  83  85
ATOM     85  CG1 ILE A   5      26.890  29.483  15.736  0.00  0.00    +0.002 C 
ATOM     86  CD1 ILE A   5      25.623  29.417  14.927  0.00  0.00    +0.000 C 
ENDBRANCH  83  85
ENDBRANCH  45  83
ENDBRANCH   1  45
TORSDOF 32
REMARK  Name = ../refined-set-2016/3mxd/3mxd_pocket.pdb
REMARK  222 active torsions:
REMARK  status: ('A' for Active; 'I' for Inactive)
REMARK    1  A    between atoms: _1  and  _3
REMARK    2  A    between atoms: _3  and  _4
REMARK    3  A    between atoms: _3  and  _6
REMARK    4  A    between atoms: _6  and  _7
REMARK    5  A    between atoms: _7  and  _8
REMARK    6  A    between atoms: _8  and  _9
REMARK    7  A    between atoms: _18  and  _20
REMARK    8  A    between atoms: _20  and  _21
REMARK    9  A    between atoms: _20  and  _23
REMARK   10  A    between atoms: _23  and  _24
REMARK   11  A    between atoms: _27  and  _29
REMARK   12  A    between atoms: _29  and  _30
REMARK   13  A    between atoms: _29  and  _32
REMARK   14  A    between atoms: _32  and  _33
REMARK   15  A    between atoms: _36  and  _38
REMARK   16  A    between atoms: _38  and  _39
REMARK   17  A    between atoms: _38  and  _41
REMARK   18  A    between atoms: _41  and  _42
REMARK   19  A    between atoms: _45  and  _47
REMARK   20  A    between atoms: _47  and  _48
REMARK   21  A    between atoms: _47  and  _50
REMARK   22  A    between atoms: _50  and  _51
REMARK   23  A    between atoms: _54  and  _56
REMARK   24  A    between atoms: _56  and  _57
REMARK   25  A    between atoms: _59  and  _61
REMARK   26  A    between atoms: _61  and  _62
REMARK   27  A    between atoms: _65  and  _67
REMARK   28  A    between atoms: _67  and  _68
REMARK   29  A    between atoms: _67  and  _70
REMARK   30  A    between atoms: _70  and  _71
REMARK   31  A    between atoms: _74  and  _76
REMARK   32  A    between atoms: _76  and  _77
REMARK   33  A    between atoms: _76  and  _79
REMARK   34  A    between atoms: _79  and  _80
REMARK   35  A    between atoms: _83  and  _85
REMARK   36  A    between atoms: _85  and  _86
REMARK   37  A    between atoms: _85  and  _88
REMARK   38  A    between atoms: _88  and  _89
REMARK   39  A    between atoms: _92  and  _94
REMARK   40  A    between atoms: _94  and  _95
REMARK   41  A    between atoms: _94  and  _97
REMARK   42  A    between atoms: _100  and  _102
REMARK   43  A    between atoms: _102  and  _103
REMARK   44  A    between atoms: _102  and  _105
REMARK   45  A    between atoms: _105  and  _106
REMARK   46  A    between atoms: _106  and  _107
REMARK   47  A    between atoms: _109  and  _111
REMARK   48  A    between atoms: _111  and  _112
REMARK   49  A    between atoms: _111  and  _114
REMARK   50  A    between atoms: _114  and  _115
REMARK   51  A    between atoms: _118  and  _120
REMARK   52  A    between atoms: _120  and  _121
REMARK   53  A    between atoms: _123  and  _125
REMARK   54  A    between atoms: _125  and  _126
REMARK   55  A    between atoms: _128  and  _130
REMARK   56  A    between atoms: _130  and  _131
REMARK   57  A    between atoms: _130  and  _133
REMARK   58  A    between atoms: _133  and  _134
REMARK   59  A    between atoms: _137  and  _139
REMARK   60  A    between atoms: _139  and  _140
REMARK   61  A    between atoms: _142  and  _144
REMARK   62  A    between atoms: _144  and  _145
REMARK   63  A    between atoms: _147  and  _149
REMARK   64  A    between atoms: _149  and  _150
REMARK   65  A    between atoms: _149  and  _152
REMARK   66  A    between atoms: _152  and  _153
REMARK   67  A    between atoms: _159  and  _161
REMARK   68  A    between atoms: _161  and  _162
REMARK   69  A    between atoms: _161  and  _164
REMARK   70  A    between atoms: _164  and  _165
REMARK   71  A    between atoms: _168  and  _170
REMARK   72  A    between atoms: _170  and  _171
REMARK   73  A    between atoms: _170  and  _173
REMARK   74  A    between atoms: _176  and  _178
REMARK   75  A    between atoms: _178  and  _179
REMARK   76  A    between atoms: _178  and  _181
REMARK   77  A    between atoms: _181  and  _182
REMARK   78  A    between atoms: _185  and  _187
REMARK   79  A    between atoms: _187  and  _188
REMARK   80  A    between atoms: _187  and  _190
REMARK   81  A    between atoms: _190  and  _191
REMARK   82  A    between atoms: _195  and  _196
REMARK   83  A    between atoms: _201  and  _203
REMARK   84  A    between atoms: _203  and  _204
REMARK   85  A    between atoms: _203  and  _206
REMARK   86  A    between atoms: _209  and  _211
REMARK   87  A    between atoms: _211  and  _212
REMARK   88  A    between atoms: _211  and  _214
REMARK   89  A    between atoms: _214  and  _215
REMARK   90  A    between atoms: _220  and  _222
REMARK   91  A    between atoms: _222  and  _223
REMARK   92  A    between atoms: _222  and  _225
REMARK   93  A    between atoms: _225  and  _226
REMARK   94  A    between atoms: _229  and  _231
REMARK   95  A    between atoms: _231  and  _232
REMARK   96  A    between atoms: _231  and  _234
REMARK   97  A    between atoms: _234  and  _235
REMARK   98  A    between atoms: _238  and  _240
REMARK   99  A    between atoms: _240  and  _241
REMARK  100  A    between atoms: _243  and  _245
REMARK  101  A    between atoms: _245  and  _246
REMARK  102  A    between atoms: _245  and  _248
REMARK  103  A    between atoms: _248  and  _249
REMARK  104  A    between atoms: _249  and  _250
REMARK  105  A    between atoms: _250  and  _251
REMARK  106  A    between atoms: _260  and  _262
REMARK  107  A    between atoms: _262  and  _263
REMARK  108  A    between atoms: _262  and  _265
REMARK  109  A    between atoms: _265  and  _266
REMARK  110  A    between atoms: _271  and  _273
REMARK  111  A    between atoms: _273  and  _274
REMARK  112  A    between atoms: _273  and  _276
REMARK  113  A    between atoms: _276  and  _277
REMARK  114  A    between atoms: _277  and  _278
REMARK  115  A    between atoms: _278  and  _279
REMARK  116  A    between atoms: _288  and  _290
REMARK  117  A    between atoms: _290  and  _291
REMARK  118  A    between atoms: _290  and  _293
REMARK  119  A    between atoms: _293  and  _294
REMARK  120  A    between atoms: _297  and  _299
REMARK  121  A    between atoms: _299  and  _300
REMARK  122  A    between atoms: _299  and  _302
REMARK  123  A    between atoms: _302  and  _303
REMARK  124  A    between atoms: _306  and  _308
REMARK  125  A    between atoms: _308  and  _309
REMARK  126  A    between atoms: _308  and  _311
REMARK  127  A    between atoms: _311  and  _312
REMARK  128  A    between atoms: _315  and  _317
REMARK  129  A    between atoms: _317  and  _318
REMARK  130  A    between atoms: _317  and  _320
REMARK  131  A    between atoms: _320  and  _321
REMARK  132  A    between atoms: _324  and  _326
REMARK  133  A    between atoms: _326  and  _327
REMARK  134  A    between atoms: _329  and  _331
REMARK  135  A    between atoms: _331  and  _332
REMARK  136  A    between atoms: _335  and  _337
REMARK  137  A    between atoms: _337  and  _338
REMARK  138  A    between atoms: _337  and  _340
REMARK  139  A    between atoms: _340  and  _341
REMARK  140  A    between atoms: _344  and  _346
REMARK  141  A    between atoms: _346  and  _347
REMARK  142  A    between atoms: _346  and  _349
REMARK  143  A    between atoms: _349  and  _350
REMARK  144  A    between atoms: _353  and  _355
REMARK  145  A    between atoms: _355  and  _356
REMARK  146  A    between atoms: _355  and  _358
REMARK  147  A    between atoms: _358  and  _359
REMARK  148  A    between atoms: _362  and  _364
REMARK  149  A    between atoms: _364  and  _365
REMARK  150  A    between atoms: _364  and  _367
REMARK  151  A    between atoms: _370  and  _372
REMARK  152  A    between atoms: _372  and  _373
REMARK  153  A    between atoms: _372  and  _375
REMARK  154  A    between atoms: _375  and  _376
REMARK  155  A    between atoms: _376  and  _377
REMARK  156  A    between atoms: _377  and  _378
REMARK  157  A    between atoms: _378  and  _379
REMARK  158  A    between atoms: _383  and  _385
REMARK  159  A    between atoms: _385  and  _386
REMARK  160  A    between atoms: _385  and  _388
REMARK  161  A    between atoms: _388  and  _389
REMARK  162  A    between atoms: _389  and  _390
REMARK  163  A    between atoms: _392  and  _394
REMARK  164  A    between atoms: _394  and  _395
REMARK  165  A    between atoms: _394  and  _397
REMARK  166  A    between atoms: _397  and  _398
REMARK  167  A    between atoms: _401  and  _403
REMARK  168  A    between atoms: _403  and  _404
REMARK  169  A    between atoms: _406  and  _408
REMARK  170  A    between atoms: _408  and  _409
REMARK  171  A    between atoms: _411  and  _413
REMARK  172  A    between atoms: _413  and  _414
REMARK  173  A    between atoms: _413  and  _416
REMARK  174  A    between atoms: _416  and  _417
REMARK  175  A    between atoms: _420  and  _422
REMARK  176  A    between atoms: _422  and  _423
REMARK  177  A    between atoms: _425  and  _427
REMARK  178  A    between atoms: _427  and  _428
REMARK  179  A    between atoms: _430  and  _432
REMARK  180  A    between atoms: _432  and  _433
REMARK  181  A    between atoms: _432  and  _435
REMARK  182  A    between atoms: _435  and  _436
REMARK  183  A    between atoms: _442  and  _444
REMARK  184  A    between atoms: _444  and  _445
REMARK  185  A    between atoms: _444  and  _447
REMARK  186  A    between atoms: _447  and  _448
REMARK  187  A    between atoms: _451  and  _453
REMARK  188  A    between atoms: _453  and  _454
REMARK  189  A    between atoms: _453  and  _456
REMARK  190  A    between atoms: _456  and  _457
REMARK  191  A    between atoms: _460  and  _462
REMARK  192  A    between atoms: _462  and  _463
REMARK  193  A    between atoms: _462  and  _465
REMARK  194  A    between atoms: _465  and  _466
REMARK  195  A    between atoms: _470  and  _471
REMARK  196  A    between atoms: _476  and  _478
REMARK  197  A    between atoms: _478  and  _479
REMARK  198  A    between atoms: _478  and  _481
REMARK  199  A    between atoms: _484  and  _486
REMARK  200  A    between atoms: _486  and  _487
REMARK  201  A    between atoms: _486  and  _489
REMARK  202  A    between atoms: _489  and  _490
REMARK  203  A    between atoms: _495  and  _497
REMARK  204  A    between atoms: _497  and  _498
REMARK  205  A    between atoms: _497  and  _500
REMARK  206  A    between atoms: _500  and  _501
REMARK  207  A    between atoms: _504  and  _506
REMARK  208  A    between atoms: _506  and  _507
REMARK  209  A    between atoms: _506  and  _509
REMARK  210  A    between atoms: _509  and  _510
REMARK  211  A    between atoms: _513  and  _515
REMARK  212  A    between atoms: _515  and  _516
REMARK  213  A    between atoms: _518  and  _520
REMARK  214  A    between atoms: _520  and  _521
REMARK  215  A    between atoms: _520  and  _523
REMARK  216  A    between atoms: _523  and  _524
REMARK  217  A    between atoms: _524  and  _525
REMARK  218  A    between atoms: _525  and  _526
REMARK  219  A    between atoms: _535  and  _537
REMARK  220  A    between atoms: _537  and  _538
REMARK  221  A    between atoms: _537  and  _540
REMARK  222  A    between atoms: _540  and  _541
REMARK                            x       y       z     vdW  Elec       q    Type
REMARK                         _______ _______ _______ _____ _____    ______ ____
ROOT
ATOM      1  NE  ARG A   1      19.060  20.658  11.245  0.00  0.00    -0.265 N 
ATOM      2  HE  ARG A   1      19.989  20.227  11.066  0.00  0.00    +0.259 HD
ATOM      3  CZ  ARG A   1      18.736  21.754  10.541  0.00  0.00    +0.342 C 
ATOM      4  NH2 ARG A   1      17.582  22.396  10.752  0.00  0.00    -0.292 N 
ATOM      5 HH21 ARG A   1      16.917  22.048  11.472  0.00  0.00    +0.255 HD
ATOM      6 HH22 ARG A   1      17.349  23.244  10.196  0.00  0.00    +0.255 HD
ATOM      7  NH1 ARG A   1      19.590  22.246   9.645  0.00  0.00    -0.292 N 
ATOM      8 HH11 ARG A   1      20.507  21.781   9.491  0.00  0.00    +0.255 HD
ATOM      9 HH12 ARG A   1      19.339  23.095   9.099  0.00  0.00    +0.255 HD
ENDROOT
BRANCH   1  10
ATOM     10  CD  ARG A   1      18.199  20.025  12.247  0.00  0.00    +0.174 C 
BRANCH  10  11
ATOM     11  CG  ARG A   1      18.962  19.217  13.303  0.00  0.00    +0.045 C 
BRANCH  11  12
ATOM     12  CB  ARG A   1      18.001  18.705  14.373  0.00  0.00    +0.029 C 
BRANCH  12  13
ATOM     13  CA  ARG A   1      18.668  18.082  15.593  0.00  0.00    +0.133 C 
BRANCH  13  14
ATOM     14  N   ARG A   1      19.368  16.859  15.223  0.00  0.00    -0.239 NA
ATOM     15  H   ARG A   1      19.337  16.529  14.237  0.00  0.00    +0.142 HD
ENDBRANCH  13  14
BRANCH  13  16
ATOM     16  C   ARG A   1      17.624  17.757  16.665  0.00  0.00    +0.224 C 
ATOM     17  O   ARG A   1      16.887  16.773  16.537  0.00  0.00    -0.287 OA
ENDBRANCH  13  16
ENDBRANCH  12  13
ENDBRANCH  11  12
ENDBRANCH  10  11
ENDBRANCH   1  10
TORSDOF 6
REMARK  Name = ../refined-set-2016/3mxd/3mxd_pocket.pdb
REMARK  222 active torsions:
REMARK  status: ('A' for Active; 'I' for Inactive)
REMARK    1  A    between atoms: _1  and  _3
REMARK    2  A    between atoms: _3  and  _4
REMARK    3  A    between atoms: _3  and  _6
REMARK    4  A    between atoms: _6  and  _7
REMARK    5  A    between atoms: _7  and  _8
REMARK    6  A    between atoms: _8  and  _9
REMARK    7  A    between atoms: _18  and  _20
REMARK    8  A    between atoms: _20  and  _21
REMARK    9  A    between atoms: _20  and  _23
REMARK   10  A    between atoms: _23  and  _24
REMARK   11  A    between atoms: _27  and  _29
REMARK   12  A    between atoms: _29  and  _30
REMARK   13  A    between atoms: _29  and  _32
REMARK   14  A    between atoms: _32  and  _33
REMARK   15  A    between atoms: _36  and  _38
REMARK   16  A    between atoms: _38  and  _39
REMARK   17  A    between atoms: _38  and  _41
REMARK   18  A    between atoms: _41  and  _42
REMARK   19  A    between atoms: _45  and  _47
REMARK   20  A    between atoms: _47  and  _48
REMARK   21  A    between atoms: _47  and  _50
REMARK   22  A    between atoms: _50  and  _51
REMARK   23  A    between atoms: _54  and  _56
REMARK   24  A    between atoms: _56  and  _57
REMARK   25  A    between atoms: _59  and  _61
REMARK   26  A    between atoms: _61  and  _62
REMARK   27  A    between atoms: _65  and  _67
REMARK   28  A    between atoms: _67  and  _68
REMARK   29  A    between atoms: _67  and  _70
REMARK   30  A    between atoms: _70  and  _71
REMARK   31  A    between atoms: _74  and  _76
REMARK   32  A    between atoms: _76  and  _77
REMARK   33  A    between atoms: _76  and  _79
REMARK   34  A    between atoms: _79  and  _80
REMARK   35  A    between atoms: _83  and  _85
REMARK   36  A    between atoms: _85  and  _86
REMARK   37  A    between atoms: _85  and  _88
REMARK   38  A    between atoms: _88  and  _89
REMARK   39  A    between atoms: _92  and  _94
REMARK   40  A    between atoms: _94  and  _95
REMARK   41  A    between atoms: _94  and  _97
REMARK   42  A    between atoms: _100  and  _102
REMARK   43  A    between atoms: _102  and  _103
REMARK   44  A    between atoms: _102  and  _105
REMARK   45  A    between atoms: _105  and  _106
REMARK   46  A    between atoms: _106  and  _107
REMARK   47  A    between atoms: _109  and  _111
REMARK   48  A    between atoms: _111  and  _112
REMARK   49  A    between atoms: _111  and  _114
REMARK   50  A    between atoms: _114  and  _115
REMARK   51  A    between atoms: _118  and  _120
REMARK   52  A    between atoms: _120  and  _121
REMARK   53  A    between atoms: _123  and  _125
REMARK   54  A    between atoms: _125  and  _126
REMARK   55  A    between atoms: _128  and  _130
REMARK   56  A    between atoms: _130  and  _131
REMARK   57  A    between atoms: _130  and  _133
REMARK   58  A    between atoms: _133  and  _134
REMARK   59  A    between atoms: _137  and  _139
REMARK   60  A    between atoms: _139  and  _140
REMARK   61  A    between atoms: _142  and  _144
REMARK   62  A    between atoms: _144  and  _145
REMARK   63  A    between atoms: _147  and  _149
REMARK   64  A    between atoms: _149  and  _150
REMARK   65  A    between atoms: _149  and  _152
REMARK   66  A    between atoms: _152  and  _153
REMARK   67  A    between atoms: _159  and  _161
REMARK   68  A    between atoms: _161  and  _162
REMARK   69  A    between atoms: _161  and  _164
REMARK   70  A    between atoms: _164  and  _165
REMARK   71  A    between atoms: _168  and  _170
REMARK   72  A    between atoms: _170  and  _171
REMARK   73  A    between atoms: _170  and  _173
REMARK   74  A    between atoms: _176  and  _178
REMARK   75  A    between atoms: _178  and  _179
REMARK   76  A    between atoms: _178  and  _181
REMARK   77  A    between atoms: _181  and  _182
REMARK   78  A    between atoms: _185  and  _187
REMARK   79  A    between atoms: _187  and  _188
REMARK   80  A    between atoms: _187  and  _190
REMARK   81  A    between atoms: _190  and  _191
REMARK   82  A    between atoms: _195  and  _196
REMARK   83  A    between atoms: _201  and  _203
REMARK   84  A    between atoms: _203  and  _204
REMARK   85  A    between atoms: _203  and  _206
REMARK   86  A    between atoms: _209  and  _211
REMARK   87  A    between atoms: _211  and  _212
REMARK   88  A    between atoms: _211  and  _214
REMARK   89  A    between atoms: _214  and  _215
REMARK   90  A    between atoms: _220  and  _222
REMARK   91  A    between atoms: _222  and  _223
REMARK   92  A    between atoms: _222  and  _225
REMARK   93  A    between atoms: _225  and  _226
REMARK   94  A    between atoms: _229  and  _231
REMARK   95  A    between atoms: _231  and  _232
REMARK   96  A    between atoms: _231  and  _234
REMARK   97  A    between atoms: _234  and  _235
REMARK   98  A    between atoms: _238  and  _240
REMARK   99  A    between atoms: _240  and  _241
REMARK  100  A    between atoms: _243  and  _245
REMARK  101  A    between atoms: _245  and  _246
REMARK  102  A    between atoms: _245  and  _248
REMARK  103  A    between atoms: _248  and  _249
REMARK  104  A    between atoms: _249  and  _250
REMARK  105  A    between atoms: _250  and  _251
REMARK  106  A    between atoms: _260  and  _262
REMARK  107  A    between atoms: _262  and  _263
REMARK  108  A    between atoms: _262  and  _265
REMARK  109  A    between atoms: _265  and  _266
REMARK  110  A    between atoms: _271  and  _273
REMARK  111  A    between atoms: _273  and  _274
REMARK  112  A    between atoms: _273  and  _276
REMARK  113  A    between atoms: _276  and  _277
REMARK  114  A    between atoms: _277  and  _278
REMARK  115  A    between atoms: _278  and  _279
REMARK  116  A    between atoms: _288  and  _290
REMARK  117  A    between atoms: _290  and  _291
REMARK  118  A    between atoms: _290  and  _293
REMARK  119  A    between atoms: _293  and  _294
REMARK  120  A    between atoms: _297  and  _299
REMARK  121  A    between atoms: _299  and  _300
REMARK  122  A    between atoms: _299  and  _302
REMARK  123  A    between atoms: _302  and  _303
REMARK  124  A    between atoms: _306  and  _308
REMARK  125  A    between atoms: _308  and  _309
REMARK  126  A    between atoms: _308  and  _311
REMARK  127  A    between atoms: _311  and  _312
REMARK  128  A    between atoms: _315  and  _317
REMARK  129  A    between atoms: _317  and  _318
REMARK  130  A    between atoms: _317  and  _320
REMARK  131  A    between atoms: _320  and  _321
REMARK  132  A    between atoms: _324  and  _326
REMARK  133  A    between atoms: _326  and  _327
REMARK  134  A    between atoms: _329  and  _331
REMARK  135  A    between atoms: _331  and  _332
REMARK  136  A    between atoms: _335  and  _337
REMARK  137  A    between atoms: _337  and  _338
REMARK  138  A    between atoms: _337  and  _340
REMARK  139  A    between atoms: _340  and  _341
REMARK  140  A    between atoms: _344  and  _346
REMARK  141  A    between atoms: _346  and  _347
REMARK  142  A    between atoms: _346  and  _349
REMARK  143  A    between atoms: _349  and  _350
REMARK  144  A    between atoms: _353  and  _355
REMARK  145  A    between atoms: _355  and  _356
REMARK  146  A    between atoms: _355  and  _358
REMARK  147  A    between atoms: _358  and  _359
REMARK  148  A    between atoms: _362  and  _364
REMARK  149  A    between atoms: _364  and  _365
REMARK  150  A    between atoms: _364  and  _367
REMARK  151  A    between atoms: _370  and  _372
REMARK  152  A    between atoms: _372  and  _373
REMARK  153  A    between atoms: _372  and  _375
REMARK  154  A    between atoms: _375  and  _376
REMARK  155  A    between atoms: _376  and  _377
REMARK  156  A    between atoms: _377  and  _378
REMARK  157  A    between atoms: _378  and  _379
REMARK  158  A    between atoms: _383  and  _385
REMARK  159  A    between atoms: _385  and  _386
REMARK  160  A    between atoms: _385  and  _388
REMARK  161  A    between atoms: _388  and  _389
REMARK  162  A    between atoms: _389  and  _390
REMARK  163  A    between atoms: _392  and  _394
REMARK  164  A    between atoms: _394  and  _395
REMARK  165  A    between atoms: _394  and  _397
REMARK  166  A    between atoms: _397  and  _398
REMARK  167  A    between atoms: _401  and  _403
REMARK  168  A    between atoms: _403  and  _404
REMARK  169  A    between atoms: _406  and  _408
REMARK  170  A    between atoms: _408  and  _409
REMARK  171  A    between atoms: _411  and  _413
REMARK  172  A    between atoms: _413  and  _414
REMARK  173  A    between atoms: _413  and  _416
REMARK  174  A    between atoms: _416  and  _417
REMARK  175  A    between atoms: _420  and  _422
REMARK  176  A    between atoms: _422  and  _423
REMARK  177  A    between atoms: _425  and  _427
REMARK  178  A    between atoms: _427  and  _428
REMARK  179  A    between atoms: _430  and  _432
REMARK  180  A    between atoms: _432  and  _433
REMARK  181  A    between atoms: _432  and  _435
REMARK  182  A    between atoms: _435  and  _436
REMARK  183  A    between atoms: _442  and  _444
REMARK  184  A    between atoms: _444  and  _445
REMARK  185  A    between atoms: _444  and  _447
REMARK  186  A    between atoms: _447  and  _448
REMARK  187  A    between atoms: _451  and  _453
REMARK  188  A    between atoms: _453  and  _454
REMARK  189  A    between atoms: _453  and  _456
REMARK  190  A    between atoms: _456  and  _457
REMARK  191  A    between atoms: _460  and  _462
REMARK  192  A    between atoms: _462  and  _463
REMARK  193  A    between atoms: _462  and  _465
REMARK  194  A    between atoms: _465  and  _466
REMARK  195  A    between atoms: _470  and  _471
REMARK  196  A    between atoms: _476  and  _478
REMARK  197  A    between atoms: _478  and  _479
REMARK  198  A    between atoms: _478  and  _481
REMARK  199  A    between atoms: _484  and  _486
REMARK  200  A    between atoms: _486  and  _487
REMARK  201  A    between atoms: _486  and  _489
REMARK  202  A    between atoms: _489  and  _490
REMARK  203  A    between atoms: _495  and  _497
REMARK  204  A    between atoms: _497  and  _498
REMARK  205  A    between atoms: _497  and  _500
REMARK  206  A    between atoms: _500  and  _501
REMARK  207  A    between atoms: _504  and  _506
REMARK  208  A    between atoms: _506  and  _507
REMARK  209  A    between atoms: _506  and  _509
REMARK  210  A    between atoms: _509  and  _510
REMARK  211  A    between atoms: _513  and  _515
REMARK  212  A    between atoms: _515  and  _516
REMARK  213  A    between atoms: _518  and  _520
REMARK  214  A    between atoms: _520  and  _521
REMARK  215  A    between atoms: _520  and  _523
REMARK  216  A    between atoms: _523  and  _524
REMARK  217  A    between atoms: _524  and  _525
REMARK  218  A    between atoms: _525  and  _526
REMARK  219  A    between atoms: _535  and  _537
REMARK  220  A    between atoms: _537  and  _538
REMARK  221  A    between atoms: _537  and  _540
REMARK  222  A    between atoms: _540  and  _541
REMARK                            x       y       z     vdW  Elec       q    Type
REMARK                         _______ _______ _______ _____ _____    ______ ____
ROOT
ATOM      1  C   GLY A   5      19.629  30.911  20.264  0.00  0.00    +0.243 C 
ATOM      2  N   ALA A   6      18.344  30.605  20.463  0.00  0.00    -0.297 N 
ATOM      3  H   ALA A   6      18.116  29.688  20.898  0.00  0.00    +0.150 HD
ATOM      4  O   GLY A   5      20.000  31.964  19.741  0.00  0.00    -0.273 OA
ENDROOT
BRANCH   2   5
ATOM      5  CA  ALA A   6      17.238  31.498  20.098  0.00  0.00    +0.149 C 
ATOM      6  CB  ALA A   6      16.142  30.715  19.428  0.00  0.00    +0.031 C 
BRANCH   5   7
ATOM      7  C   ALA A   6      16.674  32.204  21.323  0.00  0.00    +0.241 C 
ATOM      8  O   ALA A   6      16.166  31.542  22.228  0.00  0.00    -0.273 OA
ATOM      9  N   ASP A   7      16.722  33.536  21.341  0.00  0.00    -0.297 N 
ATOM     10  H   ASP A   7      17.190  34.041  20.562  0.00  0.00    +0.150 HD
BRANCH   9  11
ATOM     11  CA  ASP A   7      16.124  34.304  22.444  0.00  0.00    +0.160 C 
BRANCH  11  12
ATOM     12  C   ASP A   7      14.625  34.106  22.477  0.00  0.00    +0.241 C 
ATOM     13  O   ASP A   7      14.016  34.001  23.557  0.00  0.00    -0.273 OA
ATOM     14  N   ASP A   8      14.056  34.070  21.273  0.00  0.00    -0.297 N 
ATOM     15  H   ASP A   8      14.683  34.019  20.445  0.00  0.00    +0.150 HD
BRANCH  14  16
ATOM     16  CA  ASP A   8      12.627  34.097  21.033  0.00  0.00    +0.160 C 
BRANCH  16  17
ATOM     17  C   ASP A   8      12.176  32.840  20.298  0.00  0.00    +0.241 C 
ATOM     18  N   THR A   9      10.880  32.584  20.361  0.00  0.00    -0.295 N 
ATOM     19  H   THR A   9      10.281  33.209  20.937  0.00  0.00    +0.150 HD
ATOM     20  O   ASP A   8      12.981  32.138  19.683  0.00  0.00    -0.273 OA
BRANCH  18  21
ATOM     21  CA  THR A   9      10.250  31.474  19.666  0.00  0.00    +0.176 C 
BRANCH  21  22
ATOM     22  C   THR A   9       9.751  31.953  18.300  0.00  0.00    +0.243 C 
ATOM     23  O   THR A   9       9.058  32.971  18.203  0.00  0.00    -0.273 OA
ATOM     24  N   VAL A  10      10.138  31.239  17.245  0.00  0.00    -0.298 N 
ATOM     25  H   VAL A  10      10.692  30.372  17.394  0.00  0.00    +0.150 HD
BRANCH  24  26
ATOM     26  CA  VAL A  10       9.802  31.646  15.883  0.00  0.00    +0.137 C 
BRANCH  26  27
ATOM     27  CB  VAL A  10      11.027  32.158  15.084  0.00  0.00    +0.026 C 
ATOM     28  CG2 VAL A  10      11.906  33.096  15.945  0.00  0.00    +0.002 C 
ATOM     29  CG1 VAL A  10      10.576  32.879  13.826  0.00  0.00    +0.002 C 
ENDBRANCH  26  27
BRANCH  26  30
ATOM     30  C   VAL A  10       9.184  30.469  15.147  0.00  0.00    +0.227 C 
ATOM     31  O   VAL A  10       9.811  29.416  14.955  0.00  0.00    -0.286 OA
ENDBRANCH  26  30
ENDBRANCH  24  26
ENDBRANCH  21  22
BRANCH  21  32
ATOM     32  CB  THR A   9       9.114  30.894  20.551  0.00  0.00    +0.137 C 
ATOM     33  CG2 THR A   9       8.297  29.854  19.819  0.00  0.00    +0.034 C 
BRANCH  32  34
ATOM     34  OG1 THR A   9       9.713  30.293  21.706  0.00  0.00    -0.382 OA
ATOM     35  HG1 THR A   9      10.221  30.979  22.208  0.00  0.00    +0.210 HD
ENDBRANCH  32  34
ENDBRANCH  21  32
ENDBRANCH  18  21
ENDBRANCH  16  17
BRANCH  16  36
ATOM     36  CB  ASP A   8      12.269  35.312  20.168  0.00  0.00    +0.143 C 
BRANCH  36  37
ATOM     37  CG  ASP A   8      12.678  36.629  20.798  0.00  0.00    +0.367 C 
ATOM     38  OD2 ASP A   8      12.547  36.764  22.031  0.00  0.00    -0.246 OA
ATOM     39  OD1 ASP A   8      13.106  37.544  20.050  0.00  0.00    -0.246 OA
ENDBRANCH  36  37
ENDBRANCH  16  36
ENDBRANCH  14  16
ENDBRANCH  11  12
BRANCH  11  40
ATOM     40  CB  ASP A   7      16.343  35.801  22.272  0.00  0.00    +0.143 C 
BRANCH  40  41
ATOM     41  CG  ASP A   7      17.787  36.200  22.351  0.00  0.00    +0.367 C 
ATOM     42  OD2 ASP A   7      18.625  35.428  22.857  0.00  0.00    -0.246 OA
ATOM     43  OD1 ASP A   7      18.071  37.313  21.899  0.00  0.00    -0.246 OA
ENDBRANCH  40  41
ENDBRANCH  11  40
ENDBRANCH   9  11
ENDBRANCH   5   7
ENDBRANCH   2   5
BRANCH   1  44
ATOM     44  CA  GLY A   5      20.665  29.882  20.707  0.00  0.00    +0.176 C 
BRANCH  44  47
ATOM     45  C   THR A   4      19.887  28.669  22.678  0.00  0.00    +0.243 C 
ATOM     46  O   THR A   4      20.199  29.603  23.425  0.00  0.00    -0.273 OA
ATOM     47  N   GLY A   5      20.109  28.701  21.364  0.00  0.00    -0.295 N 
ATOM     48  H   GLY A   5      19.881  27.863  20.791  0.00  0.00    +0.150 HD
BRANCH  45  49
ATOM     49  CA  THR A   4      19.210  27.409  23.237  0.00  0.00    +0.176 C 
BRANCH  49  51
ATOM     50  C   ASP A   3      17.500  26.990  21.524  0.00  0.00    +0.241 C 
ATOM     51  N   THR A   4      18.569  26.589  22.211  0.00  0.00    -0.295 N 
ATOM     52  H   THR A   4      18.965  25.649  22.008  0.00  0.00    +0.150 HD
ATOM     53  O   ASP A   3      16.975  28.097  21.673  0.00  0.00    -0.273 OA
BRANCH  50  54
ATOM     54  CA  ASP A   3      16.988  25.993  20.474  0.00  0.00    +0.160 C 
BRANCH  54  56
ATOM     55  C   LEU A   2      15.937  23.850  20.966  0.00  0.00    +0.241 C 
ATOM     56  N   ASP A   3      15.867  25.175  20.944  0.00  0.00    -0.297 N 
ATOM     57  H   ASP A   3      14.997  25.643  21.268  0.00  0.00    +0.150 HD
ATOM     58  O   LEU A   2      16.997  23.230  20.850  0.00  0.00    -0.273 OA
BRANCH  55  59
ATOM     59  CA  LEU A   2      14.618  23.097  21.101  0.00  0.00    +0.149 C 
BRANCH  59  61
ATOM     60  C   LEU A   1      13.820  23.306  18.819  0.00  0.00    +0.238 C 
ATOM     61  N   LEU A   2      14.342  22.547  19.781  0.00  0.00    -0.297 N 
ATOM     62  H   LEU A   2      14.555  21.548  19.587  0.00  0.00    +0.150 HD
ATOM     63  O   LEU A   1      13.348  24.420  19.026  0.00  0.00    -0.274 OA
BRANCH  60  64
ATOM     64  CA  LEU A   1      13.866  22.757  17.411  0.00  0.00    +0.145 C 
BRANCH  64  65
ATOM     65  N   LEU A   1      12.554  22.834  16.777  0.00  0.00    -0.238 NA
ATOM     66  H   LEU A   1      12.398  23.566  16.055  0.00  0.00    +0.142 HD
ENDBRANCH  64  65
BRANCH  64  67
ATOM     67  CB  LEU A   1      14.885  23.609  16.639  0.00  0.00    +0.026 C 
BRANCH  67  68
ATOM     68  CG  LEU A   1      15.492  23.088  15.355  0.00  0.00    +0.002 C 
ATOM     69  CD2 LEU A   1      16.387  21.903  15.645  0.00  0.00    +0.000 C 
ATOM     70  CD1 LEU A   1      16.264  24.206  14.654  0.00  0.00    +0.000 C 
ENDBRANCH  67  68
ENDBRANCH  64  67
ENDBRANCH  60  64
ENDBRANCH  59  61
BRANCH  59  71
ATOM     71  CB  LEU A   2      14.726  21.997  22.149  0.00  0.00    +0.029 C 
BRANCH  71  72
ATOM     72  CG  LEU A   2      13.490  21.125  22.345  0.00  0.00    +0.002 C 
ATOM     73  CD2 LEU A   2      13.810  20.034  23.345  0.00  0.00    +0.000 C 
ATOM     74  CD1 LEU A   2      12.287  21.945  22.803  0.00  0.00    +0.000 C 
ENDBRANCH  71  72
ENDBRANCH  59  71
ENDBRANCH  55  59
ENDBRANCH  54  56
BRANCH  54  75
ATOM     75  CB  ASP A   3      16.593  26.708  19.178  0.00  0.00    +0.143 C 
BRANCH  75  76
ATOM     76  CG  ASP A   3      17.775  27.360  18.482  0.00  0.00    +0.367 C 
ATOM     77  OD2 ASP A   3      18.888  27.369  19.056  0.00  0.00    -0.246 OA
ATOM     78  OD1 ASP A   3      17.594  27.845  17.349  0.00  0.00    -0.246 OA
ENDBRANCH  75  76
ENDBRANCH  54  75
ENDBRANCH  50  54
ENDBRANCH  49  51
BRANCH  49  79
ATOM     79  CB  THR A   4      20.235  26.581  24.041  0.00  0.00    +0.137 C 
ATOM     80  CG2 THR A   4      19.545  25.438  24.728  0.00  0.00    +0.034 C 
BRANCH  79  81
ATOM     81  OG1 THR A   4      21.284  26.090  23.180  0.00  0.00    -0.382 OA
ATOM     82  HG1 THR A   4      21.750  26.856  22.760  0.00  0.00    +0.210 HD
ENDBRANCH  79  81
ENDBRANCH  49  79
ENDBRANCH  45  49
ENDBRANCH  44  47
ENDBRANCH   1  44
TORSDOF 35
REMARK  Name = ../refined-set-2016/3mxd/3mxd_pocket.pdb
REMARK  222 active torsions:
REMARK  status: ('A' for Active; 'I' for Inactive)
REMARK    1  A    between atoms: _1  and  _3
REMARK    2  A    between atoms: _3  and  _4
REMARK    3  A    between atoms: _3  and  _6
REMARK    4  A    between atoms: _6  and  _7
REMARK    5  A    between atoms: _7  and  _8
REMARK    6  A    between atoms: _8  and  _9
REMARK    7  A    between atoms: _18  and  _20
REMARK    8  A    between atoms: _20  and  _21
REMARK    9  A    between atoms: _20  and  _23
REMARK   10  A    between atoms: _23  and  _24
REMARK   11  A    between atoms: _27  and  _29
REMARK   12  A    between atoms: _29  and  _30
REMARK   13  A    between atoms: _29  and  _32
REMARK   14  A    between atoms: _32  and  _33
REMARK   15  A    between atoms: _36  and  _38
REMARK   16  A    between atoms: _38  and  _39
REMARK   17  A    between atoms: _38  and  _41
REMARK   18  A    between atoms: _41  and  _42
REMARK   19  A    between atoms: _45  and  _47
REMARK   20  A    between atoms: _47  and  _48
REMARK   21  A    between atoms: _47  and  _50
REMARK   22  A    between atoms: _50  and  _51
REMARK   23  A    between atoms: _54  and  _56
REMARK   24  A    between atoms: _56  and  _57
REMARK   25  A    between atoms: _59  and  _61
REMARK   26  A    between atoms: _61  and  _62
REMARK   27  A    between atoms: _65  and  _67
REMARK   28  A    between atoms: _67  and  _68
REMARK   29  A    between atoms: _67  and  _70
REMARK   30  A    between atoms: _70  and  _71
REMARK   31  A    between atoms: _74  and  _76
REMARK   32  A    between atoms: _76  and  _77
REMARK   33  A    between atoms: _76  and  _79
REMARK   34  A    between atoms: _79  and  _80
REMARK   35  A    between atoms: _83  and  _85
REMARK   36  A    between atoms: _85  and  _86
REMARK   37  A    between atoms: _85  and  _88
REMARK   38  A    between atoms: _88  and  _89
REMARK   39  A    between atoms: _92  and  _94
REMARK   40  A    between atoms: _94  and  _95
REMARK   41  A    between atoms: _94  and  _97
REMARK   42  A    between atoms: _100  and  _102
REMARK   43  A    between atoms: _102  and  _103
REMARK   44  A    between atoms: _102  and  _105
REMARK   45  A    between atoms: _105  and  _106
REMARK   46  A    between atoms: _106  and  _107
REMARK   47  A    between atoms: _109  and  _111
REMARK   48  A    between atoms: _111  and  _112
REMARK   49  A    between atoms: _111  and  _114
REMARK   50  A    between atoms: _114  and  _115
REMARK   51  A    between atoms: _118  and  _120
REMARK   52  A    between atoms: _120  and  _121
REMARK   53  A    between atoms: _123  and  _125
REMARK   54  A    between atoms: _125  and  _126
REMARK   55  A    between atoms: _128  and  _130
REMARK   56  A    between atoms: _130  and  _131
REMARK   57  A    between atoms: _130  and  _133
REMARK   58  A    between atoms: _133  and  _134
REMARK   59  A    between atoms: _137  and  _139
REMARK   60  A    between atoms: _139  and  _140
REMARK   61  A    between atoms: _142  and  _144
REMARK   62  A    between atoms: _144  and  _145
REMARK   63  A    between atoms: _147  and  _149
REMARK   64  A    between atoms: _149  and  _150
REMARK   65  A    between atoms: _149  and  _152
REMARK   66  A    between atoms: _152  and  _153
REMARK   67  A    between atoms: _159  and  _161
REMARK   68  A    between atoms: _161  and  _162
REMARK   69  A    between atoms: _161  and  _164
REMARK   70  A    between atoms: _164  and  _165
REMARK   71  A    between atoms: _168  and  _170
REMARK   72  A    between atoms: _170  and  _171
REMARK   73  A    between atoms: _170  and  _173
REMARK   74  A    between atoms: _176  and  _178
REMARK   75  A    between atoms: _178  and  _179
REMARK   76  A    between atoms: _178  and  _181
REMARK   77  A    between atoms: _181  and  _182
REMARK   78  A    between atoms: _185  and  _187
REMARK   79  A    between atoms: _187  and  _188
REMARK   80  A    between atoms: _187  and  _190
REMARK   81  A    between atoms: _190  and  _191
REMARK   82  A    between atoms: _195  and  _196
REMARK   83  A    between atoms: _201  and  _203
REMARK   84  A    between atoms: _203  and  _204
REMARK   85  A    between atoms: _203  and  _206
REMARK   86  A    between atoms: _209  and  _211
REMARK   87  A    between atoms: _211  and  _212
REMARK   88  A    between atoms: _211  and  _214
REMARK   89  A    between atoms: _214  and  _215
REMARK   90  A    between atoms: _220  and  _222
REMARK   91  A    between atoms: _222  and  _223
REMARK   92  A    between atoms: _222  and  _225
REMARK   93  A    between atoms: _225  and  _226
REMARK   94  A    between atoms: _229  and  _231
REMARK   95  A    between atoms: _231  and  _232
REMARK   96  A    between atoms: _231  and  _234
REMARK   97  A    between atoms: _234  and  _235
REMARK   98  A    between atoms: _238  and  _240
REMARK   99  A    between atoms: _240  and  _241
REMARK  100  A    between atoms: _243  and  _245
REMARK  101  A    between atoms: _245  and  _246
REMARK  102  A    between atoms: _245  and  _248
REMARK  103  A    between atoms: _248  and  _249
REMARK  104  A    between atoms: _249  and  _250
REMARK  105  A    between atoms: _250  and  _251
REMARK  106  A    between atoms: _260  and  _262
REMARK  107  A    between atoms: _262  and  _263
REMARK  108  A    between atoms: _262  and  _265
REMARK  109  A    between atoms: _265  and  _266
REMARK  110  A    between atoms: _271  and  _273
REMARK  111  A    between atoms: _273  and  _274
REMARK  112  A    between atoms: _273  and  _276
REMARK  113  A    between atoms: _276  and  _277
REMARK  114  A    between atoms: _277  and  _278
REMARK  115  A    between atoms: _278  and  _279
REMARK  116  A    between atoms: _288  and  _290
REMARK  117  A    between atoms: _290  and  _291
REMARK  118  A    between atoms: _290  and  _293
REMARK  119  A    between atoms: _293  and  _294
REMARK  120  A    between atoms: _297  and  _299
REMARK  121  A    between atoms: _299  and  _300
REMARK  122  A    between atoms: _299  and  _302
REMARK  123  A    between atoms: _302  and  _303
REMARK  124  A    between atoms: _306  and  _308
REMARK  125  A    between atoms: _308  and  _309
REMARK  126  A    between atoms: _308  and  _311
REMARK  127  A    between atoms: _311  and  _312
REMARK  128  A    between atoms: _315  and  _317
REMARK  129  A    between atoms: _317  and  _318
REMARK  130  A    between atoms: _317  and  _320
REMARK  131  A    between atoms: _320  and  _321
REMARK  132  A    between atoms: _324  and  _326
REMARK  133  A    between atoms: _326  and  _327
REMARK  134  A    between atoms: _329  and  _331
REMARK  135  A    between atoms: _331  and  _332
REMARK  136  A    between atoms: _335  and  _337
REMARK  137  A    between atoms: _337  and  _338
REMARK  138  A    between atoms: _337  and  _340
REMARK  139  A    between atoms: _340  and  _341
REMARK  140  A    between atoms: _344  and  _346
REMARK  141  A    between atoms: _346  and  _347
REMARK  142  A    between atoms: _346  and  _349
REMARK  143  A    between atoms: _349  and  _350
REMARK  144  A    between atoms: _353  and  _355
REMARK  145  A    between atoms: _355  and  _356
REMARK  146  A    between atoms: _355  and  _358
REMARK  147  A    between atoms: _358  and  _359
REMARK  148  A    between atoms: _362  and  _364
REMARK  149  A    between atoms: _364  and  _365
REMARK  150  A    between atoms: _364  and  _367
REMARK  151  A    between atoms: _370  and  _372
REMARK  152  A    between atoms: _372  and  _373
REMARK  153  A    between atoms: _372  and  _375
REMARK  154  A    between atoms: _375  and  _376
REMARK  155  A    between atoms: _376  and  _377
REMARK  156  A    between atoms: _377  and  _378
REMARK  157  A    between atoms: _378  and  _379
REMARK  158  A    between atoms: _383  and  _385
REMARK  159  A    between atoms: _385  and  _386
REMARK  160  A    between atoms: _385  and  _388
REMARK  161  A    between atoms: _388  and  _389
REMARK  162  A    between atoms: _389  and  _390
REMARK  163  A    between atoms: _392  and  _394
REMARK  164  A    between atoms: _394  and  _395
REMARK  165  A    between atoms: _394  and  _397
REMARK  166  A    between atoms: _397  and  _398
REMARK  167  A    between atoms: _401  and  _403
REMARK  168  A    between atoms: _403  and  _404
REMARK  169  A    between atoms: _406  and  _408
REMARK  170  A    between atoms: _408  and  _409
REMARK  171  A    between atoms: _411  and  _413
REMARK  172  A    between atoms: _413  and  _414
REMARK  173  A    between atoms: _413  and  _416
REMARK  174  A    between atoms: _416  and  _417
REMARK  175  A    between atoms: _420  and  _422
REMARK  176  A    between atoms: _422  and  _423
REMARK  177  A    between atoms: _425  and  _427
REMARK  178  A    between atoms: _427  and  _428
REMARK  179  A    between atoms: _430  and  _432
REMARK  180  A    between atoms: _432  and  _433
REMARK  181  A    between atoms: _432  and  _435
REMARK  182  A    between atoms: _435  and  _436
REMARK  183  A    between atoms: _442  and  _444
REMARK  184  A    between atoms: _444  and  _445
REMARK  185  A    between atoms: _444  and  _447
REMARK  186  A    between atoms: _447  and  _448
REMARK  187  A    between atoms: _451  and  _453
REMARK  188  A    between atoms: _453  and  _454
REMARK  189  A    between atoms: _453  and  _456
REMARK  190  A    between atoms: _456  and  _457
REMARK  191  A    between atoms: _460  and  _462
REMARK  192  A    between atoms: _462  and  _463
REMARK  193  A    between atoms: _462  and  _465
REMARK  194  A    between atoms: _465  and  _466
REMARK  195  A    between atoms: _470  and  _471
REMARK  196  A    between atoms: _476  and  _478
REMARK  197  A    between atoms: _478  and  _479
REMARK  198  A    between atoms: _478  and  _481
REMARK  199  A    between atoms: _484  and  _486
REMARK  200  A    between atoms: _486  and  _487
REMARK  201  A    between atoms: _486  and  _489
REMARK  202  A    between atoms: _489  and  _490
REMARK  203  A    between atoms: _495  and  _497
REMARK  204  A    between atoms: _497  and  _498
REMARK  205  A    between atoms: _497  and  _500
REMARK  206  A    between atoms: _500  and  _501
REMARK  207  A    between atoms: _504  and  _506
REMARK  208  A    between atoms: _506  and  _507
REMARK  209  A    between atoms: _506  and  _509
REMARK  210  A    between atoms: _509  and  _510
REMARK  211  A    between atoms: _513  and  _515
REMARK  212  A    between atoms: _515  and  _516
REMARK  213  A    between atoms: _518  and  _520
REMARK  214  A    between atoms: _520  and  _521
REMARK  215  A    between atoms: _520  and  _523
REMARK  216  A    between atoms: _523  and  _524
REMARK  217  A    between atoms: _524  and  _525
REMARK  218  A    between atoms: _525  and  _526
REMARK  219  A    between atoms: _535  and  _537
REMARK  220  A    between atoms: _537  and  _538
REMARK  221  A    between atoms: _537  and  _540
REMARK  222  A    between atoms: _540  and  _541
REMARK                            x       y       z     vdW  Elec       q    Type
REMARK                         _______ _______ _______ _____ _____    ______ ____
ROOT
ATOM      1  C   GLY A   5      21.467  35.538  11.237  0.00  0.00    +0.243 C 
ATOM      2  N   ILE A   6      21.966  34.333  11.016  0.00  0.00    -0.297 N 
ATOM      3  H   ILE A   6      21.753  33.557  11.675  0.00  0.00    +0.150 HD
ATOM      4  O   GLY A   5      21.781  36.514  10.565  0.00  0.00    -0.273 OA
ENDROOT
BRANCH   2   5
ATOM      5  CA  ILE A   6      22.809  34.085   9.859  0.00  0.00    +0.149 C 
BRANCH   5   6
ATOM      6  C   ILE A   6      22.006  34.410   8.597  0.00  0.00    +0.241 C 
ATOM      7  O   ILE A   6      20.860  33.981   8.457  0.00  0.00    -0.273 OA
ATOM      8  N   GLY A   7      22.618  35.199   7.709  0.00  0.00    -0.295 N 
ATOM      9  H   GLY A   7      23.577  35.537   7.926  0.00  0.00    +0.150 HD
BRANCH   8  10
ATOM     10  CA  GLY A   7      22.009  35.607   6.455  0.00  0.00    +0.176 C 
BRANCH  10  11
ATOM     11  C   GLY A   7      21.299  36.942   6.472  0.00  0.00    +0.243 C 
ATOM     12  N   GLY A   8      20.954  37.442   7.651  0.00  0.00    -0.295 N 
ATOM     13  H   GLY A   8      21.167  36.897   8.511  0.00  0.00    +0.150 HD
ATOM     14  O   GLY A   7      21.050  37.507   5.423  0.00  0.00    -0.273 OA
BRANCH  12  15
ATOM     15  CA  GLY A   8      20.287  38.728   7.781  0.00  0.00    +0.176 C 
BRANCH  15  16
ATOM     16  C   GLY A   8      19.011  38.617   8.587  0.00  0.00    +0.243 C 
ATOM     17  O   GLY A   8      18.880  37.747   9.459  0.00  0.00    -0.273 OA
ATOM     18  N   PHE A   9      18.055  39.485   8.271  0.00  0.00    -0.297 N 
ATOM     19  H   PHE A   9      18.176  40.084   7.429  0.00  0.00    +0.150 HD
BRANCH  18  20
ATOM     20  CA  PHE A   9      16.844  39.624   9.066  0.00  0.00    +0.153 C 
BRANCH  20  21
ATOM     21  C   PHE A   9      15.631  39.109   8.316  0.00  0.00    +0.241 C 
ATOM     22  N   ILE A  10      14.625  38.664   9.068  0.00  0.00    -0.298 N 
ATOM     23  H   ILE A  10      14.788  38.499  10.082  0.00  0.00    +0.150 HD
ATOM     24  O   PHE A   9      15.614  39.114   7.076  0.00  0.00    -0.273 OA
BRANCH  22  25
ATOM     25  CA  ILE A  10      13.294  38.399   8.509  0.00  0.00    +0.137 C 
BRANCH  25  26
ATOM     26  C   ILE A  10      12.248  39.199   9.282  0.00  0.00    +0.227 C 
ATOM     27  O   ILE A  10      12.437  39.504  10.464  0.00  0.00    -0.286 OA
ENDBRANCH  25  26
BRANCH  25  28
ATOM     28  CB  ILE A  10      12.910  36.896   8.505  0.00  0.00    +0.026 C 
ATOM     29  CG2 ILE A  10      13.837  36.145   7.598  0.00  0.00    +0.002 C 
BRANCH  28  30
ATOM     30  CG1 ILE A  10      12.938  36.286   9.910  0.00  0.00    +0.002 C 
ATOM     31  CD1 ILE A  10      12.116  34.996  10.007  0.00  0.00    +0.000 C 
ENDBRANCH  28  30
ENDBRANCH  25  28
ENDBRANCH  22  25
ENDBRANCH  20  21
BRANCH  20  32
ATOM     32  CB  PHE A   9      16.623  41.095   9.424  0.00  0.00    +0.055 C 
BRANCH  32  33
ATOM     33  CG  PHE A   9      17.448  41.563  10.583  0.00  0.00    -0.020 A 
ATOM     34  CD2 PHE A   9      16.883  41.723  11.840  0.00  0.00    -0.004 A 
ATOM     35  CE2 PHE A   9      17.663  42.151  12.914  0.00  0.00    -0.000 A 
ATOM     36  CZ  PHE A   9      19.012  42.415  12.729  0.00  0.00    -0.000 A 
ATOM     37  CE1 PHE A   9      19.581  42.250  11.487  0.00  0.00    -0.000 A 
ATOM     38  CD1 PHE A   9      18.804  41.821  10.422  0.00  0.00    -0.004 A 
ENDBRANCH  32  33
ENDBRANCH  20  32
ENDBRANCH  18  20
ENDBRANCH  15  16
ENDBRANCH  12  15
ENDBRANCH  10  11
ENDBRANCH   8  10
ENDBRANCH   5   6
BRANCH   5  39
ATOM     39  CB  ILE A   6      23.341  32.639   9.845  0.00  0.00    +0.027 C 
ATOM     40  CG2 ILE A   6      23.931  32.285   8.491  0.00  0.00    +0.002 C 
BRANCH  39  41
ATOM     41  CG1 ILE A   6      24.385  32.461  10.962  0.00  0.00    +0.002 C 
ATOM     42  CD1 ILE A   6      24.726  31.015  11.292  0.00  0.00    +0.000 C 
ENDBRANCH  39  41
ENDBRANCH   5  39
ENDBRANCH   2   5
BRANCH   1  43
ATOM     43  CA  GLY A   5      20.466  35.651  12.369  0.00  0.00    +0.176 C 
BRANCH  43  46
ATOM     44  C   GLY A   4      18.947  37.372  13.153  0.00  0.00    +0.243 C 
ATOM     45  O   GLY A   4      18.959  36.978  14.320  0.00  0.00    -0.273 OA
ATOM     46  N   GLY A   5      19.585  36.765  12.160  0.00  0.00    -0.295 N 
ATOM     47  H   GLY A   5      19.441  37.111  11.190  0.00  0.00    +0.150 HD
BRANCH  44  48
ATOM     48  CA  GLY A   4      18.217  38.635  12.751  0.00  0.00    +0.176 C 
BRANCH  48  50
ATOM     49  C   ILE A   3      15.841  38.900  13.040  0.00  0.00    +0.241 C 
ATOM     50  N   GLY A   4      17.055  38.899  13.559  0.00  0.00    -0.295 N 
ATOM     51  H   GLY A   4      17.175  39.093  14.574  0.00  0.00    +0.150 HD
ATOM     52  O   ILE A   3      15.602  38.586  11.866  0.00  0.00    -0.273 OA
BRANCH  49  53
ATOM     53  CA  ILE A   3      14.741  39.360  13.987  0.00  0.00    +0.149 C 
BRANCH  53  56
ATOM     54  C   MET A   2      13.420  41.360  13.528  0.00  0.00    +0.241 C 
ATOM     55  O   MET A   2      13.884  41.970  14.492  0.00  0.00    -0.273 OA
ATOM     56  N   ILE A   3      13.753  40.108  13.222  0.00  0.00    -0.297 N 
ATOM     57  H   ILE A   3      13.293  39.649  12.410  0.00  0.00    +0.150 HD
BRANCH  54  58
ATOM     58  CA  MET A   2      12.398  42.024  12.621  0.00  0.00    +0.149 C 
BRANCH  58  60
ATOM     59  C   LYS A   1      10.076  42.291  13.307  0.00  0.00    +0.238 C 
ATOM     60  N   MET A   2      11.358  42.615  13.448  0.00  0.00    -0.297 N 
ATOM     61  H   MET A   2      11.625  43.312  14.172  0.00  0.00    +0.150 HD
ATOM     62  O   LYS A   1       9.654  41.616  12.367  0.00  0.00    -0.274 OA
BRANCH  59  63
ATOM     63  CA  LYS A   1       9.121  42.821  14.375  0.00  0.00    +0.145 C 
BRANCH  63  64
ATOM     64  N   LYS A   1       7.779  42.884  13.810  0.00  0.00    -0.238 NA
ATOM     65  H   LYS A   1       7.521  42.207  13.064  0.00  0.00    +0.142 HD
ENDBRANCH  63  64
BRANCH  63  66
ATOM     66  CB  LYS A   1       9.130  41.878  15.579  0.00  0.00    +0.026 C 
BRANCH  66  67
ATOM     67  CG  LYS A   1      10.380  41.891  16.463  0.00  0.00    -0.000 C 
BRANCH  67  68
ATOM     68  CD  LYS A   1      10.167  40.915  17.633  0.00  0.00    -0.024 C 
BRANCH  68  69
ATOM     69  CE  LYS A   1      11.416  40.677  18.466  0.00  0.00    -0.086 C 
BRANCH  69  70
ATOM     70  NZ  LYS A   1      11.807  41.860  19.251  0.00  0.00    +0.380 N 
ATOM     71  HZ1 LYS A   1      11.034  42.116  19.899  0.00  0.00    -0.089 HD
ATOM     72  HZ2 LYS A   1      12.663  41.643  19.800  0.00  0.00    -0.089 HD
ATOM     73  HZ3 LYS A   1      11.998  42.654  18.607  0.00  0.00    -0.089 HD
ENDBRANCH  69  70
ENDBRANCH  68  69
ENDBRANCH  67  68
ENDBRANCH  66  67
ENDBRANCH  63  66
ENDBRANCH  59  63
ENDBRANCH  58  60
BRANCH  58  74
ATOM     74  CB  MET A   2      13.064  43.090  11.750  0.00  0.00    +0.041 C 
BRANCH  74  75
ATOM     75  CG  MET A   2      12.274  43.430  10.499  0.00  0.00    +0.060 C 
BRANCH  75  76
ATOM     76  SD  MET A   2      13.033  42.823   8.979  0.00  0.00    -0.139 S 
ATOM     77  CE  MET A   2      14.230  44.104   8.658  0.00  0.00    +0.069 C 
ENDBRANCH  75  76
ENDBRANCH  74  75
ENDBRANCH  58  74
ENDBRANCH  54  58
ENDBRANCH  53  56
BRANCH  53  78
ATOM     78  CB  ILE A   3      14.142  38.174  14.756  0.00  0.00    +0.027 C 
ATOM     79  CG2 ILE A   3      13.254  38.677  15.900  0.00  0.00    +0.002 C 
BRANCH  78  80
ATOM     80  CG1 ILE A   3      13.356  37.251  13.830  0.00  0.00    +0.002 C 
ATOM     81  CD1 ILE A   3      13.142  35.885  14.432  0.00  0.00    +0.000 C 
ENDBRANCH  78  80
ENDBRANCH  53  78
ENDBRANCH  49  53
ENDBRANCH  48  50
ENDBRANCH  44  48
ENDBRANCH  43  46
ENDBRANCH   1  43
TORSDOF 36
REMARK  Name = ../refined-set-2016/3mxd/3mxd_pocket.pdb
REMARK  222 active torsions:
REMARK  status: ('A' for Active; 'I' for Inactive)
REMARK    1  A    between atoms: _1  and  _3
REMARK    2  A    between atoms: _3  and  _4
REMARK    3  A    between atoms: _3  and  _6
REMARK    4  A    between atoms: _6  and  _7
REMARK    5  A    between atoms: _7  and  _8
REMARK    6  A    between atoms: _8  and  _9
REMARK    7  A    between atoms: _18  and  _20
REMARK    8  A    between atoms: _20  and  _21
REMARK    9  A    between atoms: _20  and  _23
REMARK   10  A    between atoms: _23  and  _24
REMARK   11  A    between atoms: _27  and  _29
REMARK   12  A    between atoms: _29  and  _30
REMARK   13  A    between atoms: _29  and  _32
REMARK   14  A    between atoms: _32  and  _33
REMARK   15  A    between atoms: _36  and  _38
REMARK   16  A    between atoms: _38  and  _39
REMARK   17  A    between atoms: _38  and  _41
REMARK   18  A    between atoms: _41  and  _42
REMARK   19  A    between atoms: _45  and  _47
REMARK   20  A    between atoms: _47  and  _48
REMARK   21  A    between atoms: _47  and  _50
REMARK   22  A    between atoms: _50  and  _51
REMARK   23  A    between atoms: _54  and  _56
REMARK   24  A    between atoms: _56  and  _57
REMARK   25  A    between atoms: _59  and  _61
REMARK   26  A    between atoms: _61  and  _62
REMARK   27  A    between atoms: _65  and  _67
REMARK   28  A    between atoms: _67  and  _68
REMARK   29  A    between atoms: _67  and  _70
REMARK   30  A    between atoms: _70  and  _71
REMARK   31  A    between atoms: _74  and  _76
REMARK   32  A    between atoms: _76  and  _77
REMARK   33  A    between atoms: _76  and  _79
REMARK   34  A    between atoms: _79  and  _80
REMARK   35  A    between atoms: _83  and  _85
REMARK   36  A    between atoms: _85  and  _86
REMARK   37  A    between atoms: _85  and  _88
REMARK   38  A    between atoms: _88  and  _89
REMARK   39  A    between atoms: _92  and  _94
REMARK   40  A    between atoms: _94  and  _95
REMARK   41  A    between atoms: _94  and  _97
REMARK   42  A    between atoms: _100  and  _102
REMARK   43  A    between atoms: _102  and  _103
REMARK   44  A    between atoms: _102  and  _105
REMARK   45  A    between atoms: _105  and  _106
REMARK   46  A    between atoms: _106  and  _107
REMARK   47  A    between atoms: _109  and  _111
REMARK   48  A    between atoms: _111  and  _112
REMARK   49  A    between atoms: _111  and  _114
REMARK   50  A    between atoms: _114  and  _115
REMARK   51  A    between atoms: _118  and  _120
REMARK   52  A    between atoms: _120  and  _121
REMARK   53  A    between atoms: _123  and  _125
REMARK   54  A    between atoms: _125  and  _126
REMARK   55  A    between atoms: _128  and  _130
REMARK   56  A    between atoms: _130  and  _131
REMARK   57  A    between atoms: _130  and  _133
REMARK   58  A    between atoms: _133  and  _134
REMARK   59  A    between atoms: _137  and  _139
REMARK   60  A    between atoms: _139  and  _140
REMARK   61  A    between atoms: _142  and  _144
REMARK   62  A    between atoms: _144  and  _145
REMARK   63  A    between atoms: _147  and  _149
REMARK   64  A    between atoms: _149  and  _150
REMARK   65  A    between atoms: _149  and  _152
REMARK   66  A    between atoms: _152  and  _153
REMARK   67  A    between atoms: _159  and  _161
REMARK   68  A    between atoms: _161  and  _162
REMARK   69  A    between atoms: _161  and  _164
REMARK   70  A    between atoms: _164  and  _165
REMARK   71  A    between atoms: _168  and  _170
REMARK   72  A    between atoms: _170  and  _171
REMARK   73  A    between atoms: _170  and  _173
REMARK   74  A    between atoms: _176  and  _178
REMARK   75  A    between atoms: _178  and  _179
REMARK   76  A    between atoms: _178  and  _181
REMARK   77  A    between atoms: _181  and  _182
REMARK   78  A    between atoms: _185  and  _187
REMARK   79  A    between atoms: _187  and  _188
REMARK   80  A    between atoms: _187  and  _190
REMARK   81  A    between atoms: _190  and  _191
REMARK   82  A    between atoms: _195  and  _196
REMARK   83  A    between atoms: _201  and  _203
REMARK   84  A    between atoms: _203  and  _204
REMARK   85  A    between atoms: _203  and  _206
REMARK   86  A    between atoms: _209  and  _211
REMARK   87  A    between atoms: _211  and  _212
REMARK   88  A    between atoms: _211  and  _214
REMARK   89  A    between atoms: _214  and  _215
REMARK   90  A    between atoms: _220  and  _222
REMARK   91  A    between atoms: _222  and  _223
REMARK   92  A    between atoms: _222  and  _225
REMARK   93  A    between atoms: _225  and  _226
REMARK   94  A    between atoms: _229  and  _231
REMARK   95  A    between atoms: _231  and  _232
REMARK   96  A    between atoms: _231  and  _234
REMARK   97  A    between atoms: _234  and  _235
REMARK   98  A    between atoms: _238  and  _240
REMARK   99  A    between atoms: _240  and  _241
REMARK  100  A    between atoms: _243  and  _245
REMARK  101  A    between atoms: _245  and  _246
REMARK  102  A    between atoms: _245  and  _248
REMARK  103  A    between atoms: _248  and  _249
REMARK  104  A    between atoms: _249  and  _250
REMARK  105  A    between atoms: _250  and  _251
REMARK  106  A    between atoms: _260  and  _262
REMARK  107  A    between atoms: _262  and  _263
REMARK  108  A    between atoms: _262  and  _265
REMARK  109  A    between atoms: _265  and  _266
REMARK  110  A    between atoms: _271  and  _273
REMARK  111  A    between atoms: _273  and  _274
REMARK  112  A    between atoms: _273  and  _276
REMARK  113  A    between atoms: _276  and  _277
REMARK  114  A    between atoms: _277  and  _278
REMARK  115  A    between atoms: _278  and  _279
REMARK  116  A    between atoms: _288  and  _290
REMARK  117  A    between atoms: _290  and  _291
REMARK  118  A    between atoms: _290  and  _293
REMARK  119  A    between atoms: _293  and  _294
REMARK  120  A    between atoms: _297  and  _299
REMARK  121  A    between atoms: _299  and  _300
REMARK  122  A    between atoms: _299  and  _302
REMARK  123  A    between atoms: _302  and  _303
REMARK  124  A    between atoms: _306  and  _308
REMARK  125  A    between atoms: _308  and  _309
REMARK  126  A    between atoms: _308  and  _311
REMARK  127  A    between atoms: _311  and  _312
REMARK  128  A    between atoms: _315  and  _317
REMARK  129  A    between atoms: _317  and  _318
REMARK  130  A    between atoms: _317  and  _320
REMARK  131  A    between atoms: _320  and  _321
REMARK  132  A    between atoms: _324  and  _326
REMARK  133  A    between atoms: _326  and  _327
REMARK  134  A    between atoms: _329  and  _331
REMARK  135  A    between atoms: _331  and  _332
REMARK  136  A    between atoms: _335  and  _337
REMARK  137  A    between atoms: _337  and  _338
REMARK  138  A    between atoms: _337  and  _340
REMARK  139  A    between atoms: _340  and  _341
REMARK  140  A    between atoms: _344  and  _346
REMARK  141  A    between atoms: _346  and  _347
REMARK  142  A    between atoms: _346  and  _349
REMARK  143  A    between atoms: _349  and  _350
REMARK  144  A    between atoms: _353  and  _355
REMARK  145  A    between atoms: _355  and  _356
REMARK  146  A    between atoms: _355  and  _358
REMARK  147  A    between atoms: _358  and  _359
REMARK  148  A    between atoms: _362  and  _364
REMARK  149  A    between atoms: _364  and  _365
REMARK  150  A    between atoms: _364  and  _367
REMARK  151  A    between atoms: _370  and  _372
REMARK  152  A    between atoms: _372  and  _373
REMARK  153  A    between atoms: _372  and  _375
REMARK  154  A    between atoms: _375  and  _376
REMARK  155  A    between atoms: _376  and  _377
REMARK  156  A    between atoms: _377  and  _378
REMARK  157  A    between atoms: _378  and  _379
REMARK  158  A    between atoms: _383  and  _385
REMARK  159  A    between atoms: _385  and  _386
REMARK  160  A    between atoms: _385  and  _388
REMARK  161  A    between atoms: _388  and  _389
REMARK  162  A    between atoms: _389  and  _390
REMARK  163  A    between atoms: _392  and  _394
REMARK  164  A    between atoms: _394  and  _395
REMARK  165  A    between atoms: _394  and  _397
REMARK  166  A    between atoms: _397  and  _398
REMARK  167  A    between atoms: _401  and  _403
REMARK  168  A    between atoms: _403  and  _404
REMARK  169  A    between atoms: _406  and  _408
REMARK  170  A    between atoms: _408  and  _409
REMARK  171  A    between atoms: _411  and  _413
REMARK  172  A    between atoms: _413  and  _414
REMARK  173  A    between atoms: _413  and  _416
REMARK  174  A    between atoms: _416  and  _417
REMARK  175  A    between atoms: _420  and  _422
REMARK  176  A    between atoms: _422  and  _423
REMARK  177  A    between atoms: _425  and  _427
REMARK  178  A    between atoms: _427  and  _428
REMARK  179  A    between atoms: _430  and  _432
REMARK  180  A    between atoms: _432  and  _433
REMARK  181  A    between atoms: _432  and  _435
REMARK  182  A    between atoms: _435  and  _436
REMARK  183  A    between atoms: _442  and  _444
REMARK  184  A    between atoms: _444  and  _445
REMARK  185  A    between atoms: _444  and  _447
REMARK  186  A    between atoms: _447  and  _448
REMARK  187  A    between atoms: _451  and  _453
REMARK  188  A    between atoms: _453  and  _454
REMARK  189  A    between atoms: _453  and  _456
REMARK  190  A    between atoms: _456  and  _457
REMARK  191  A    between atoms: _460  and  _462
REMARK  192  A    between atoms: _462  and  _463
REMARK  193  A    between atoms: _462  and  _465
REMARK  194  A    between atoms: _465  and  _466
REMARK  195  A    between atoms: _470  and  _471
REMARK  196  A    between atoms: _476  and  _478
REMARK  197  A    between atoms: _478  and  _479
REMARK  198  A    between atoms: _478  and  _481
REMARK  199  A    between atoms: _484  and  _486
REMARK  200  A    between atoms: _486  and  _487
REMARK  201  A    between atoms: _486  and  _489
REMARK  202  A    between atoms: _489  and  _490
REMARK  203  A    between atoms: _495  and  _497
REMARK  204  A    between atoms: _497  and  _498
REMARK  205  A    between atoms: _497  and  _500
REMARK  206  A    between atoms: _500  and  _501
REMARK  207  A    between atoms: _504  and  _506
REMARK  208  A    between atoms: _506  and  _507
REMARK  209  A    between atoms: _506  and  _509
REMARK  210  A    between atoms: _509  and  _510
REMARK  211  A    between atoms: _513  and  _515
REMARK  212  A    between atoms: _515  and  _516
REMARK  213  A    between atoms: _518  and  _520
REMARK  214  A    between atoms: _520  and  _521
REMARK  215  A    between atoms: _520  and  _523
REMARK  216  A    between atoms: _523  and  _524
REMARK  217  A    between atoms: _524  and  _525
REMARK  218  A    between atoms: _525  and  _526
REMARK  219  A    between atoms: _535  and  _537
REMARK  220  A    between atoms: _537  and  _538
REMARK  221  A    between atoms: _537  and  _540
REMARK  222  A    between atoms: _540  and  _541
REMARK                            x       y       z     vdW  Elec       q    Type
REMARK                         _______ _______ _______ _____ _____    ______ ____
ROOT
ATOM      1  CA  LEU A   1       6.924  35.151  16.472  0.00  0.00    +0.133 C 
ENDROOT
BRANCH   1   2
ATOM      2  N   LEU A   1       6.688  34.366  17.673  0.00  0.00    -0.239 NA
ATOM      3  H   LEU A   1       7.415  33.689  17.982  0.00  0.00    +0.142 HD
ENDBRANCH   1   2
BRANCH   1   4
ATOM      4  C   LEU A   1       6.601  34.281  15.265  0.00  0.00    +0.224 C 
ATOM      5  O   LEU A   1       7.011  33.119  15.203  0.00  0.00    -0.287 OA
ENDBRANCH   1   4
BRANCH   1   6
ATOM      6  CB  LEU A   1       8.377  35.614  16.418  0.00  0.00    +0.025 C 
BRANCH   6   7
ATOM      7  CG  LEU A   1       8.923  36.354  17.646  0.00  0.00    +0.002 C 
ATOM      8  CD2 LEU A   1       8.060  37.553  17.995  0.00  0.00    +0.000 C 
ATOM      9  CD1 LEU A   1      10.361  36.795  17.384  0.00  0.00    +0.000 C 
ENDBRANCH   6   7
ENDBRANCH   1   6
TORSDOF 4
REMARK  Name = ../refined-set-2016/3mxd/3mxd_pocket.pdb
REMARK  222 active torsions:
REMARK  status: ('A' for Active; 'I' for Inactive)
REMARK    1  A    between atoms: _1  and  _3
REMARK    2  A    between atoms: _3  and  _4
REMARK    3  A    between atoms: _3  and  _6
REMARK    4  A    between atoms: _6  and  _7
REMARK    5  A    between atoms: _7  and  _8
REMARK    6  A    between atoms: _8  and  _9
REMARK    7  A    between atoms: _18  and  _20
REMARK    8  A    between atoms: _20  and  _21
REMARK    9  A    between atoms: _20  and  _23
REMARK   10  A    between atoms: _23  and  _24
REMARK   11  A    between atoms: _27  and  _29
REMARK   12  A    between atoms: _29  and  _30
REMARK   13  A    between atoms: _29  and  _32
REMARK   14  A    between atoms: _32  and  _33
REMARK   15  A    between atoms: _36  and  _38
REMARK   16  A    between atoms: _38  and  _39
REMARK   17  A    between atoms: _38  and  _41
REMARK   18  A    between atoms: _41  and  _42
REMARK   19  A    between atoms: _45  and  _47
REMARK   20  A    between atoms: _47  and  _48
REMARK   21  A    between atoms: _47  and  _50
REMARK   22  A    between atoms: _50  and  _51
REMARK   23  A    between atoms: _54  and  _56
REMARK   24  A    between atoms: _56  and  _57
REMARK   25  A    between atoms: _59  and  _61
REMARK   26  A    between atoms: _61  and  _62
REMARK   27  A    between atoms: _65  and  _67
REMARK   28  A    between atoms: _67  and  _68
REMARK   29  A    between atoms: _67  and  _70
REMARK   30  A    between atoms: _70  and  _71
REMARK   31  A    between atoms: _74  and  _76
REMARK   32  A    between atoms: _76  and  _77
REMARK   33  A    between atoms: _76  and  _79
REMARK   34  A    between atoms: _79  and  _80
REMARK   35  A    between atoms: _83  and  _85
REMARK   36  A    between atoms: _85  and  _86
REMARK   37  A    between atoms: _85  and  _88
REMARK   38  A    between atoms: _88  and  _89
REMARK   39  A    between atoms: _92  and  _94
REMARK   40  A    between atoms: _94  and  _95
REMARK   41  A    between atoms: _94  and  _97
REMARK   42  A    between atoms: _100  and  _102
REMARK   43  A    between atoms: _102  and  _103
REMARK   44  A    between atoms: _102  and  _105
REMARK   45  A    between atoms: _105  and  _106
REMARK   46  A    between atoms: _106  and  _107
REMARK   47  A    between atoms: _109  and  _111
REMARK   48  A    between atoms: _111  and  _112
REMARK   49  A    between atoms: _111  and  _114
REMARK   50  A    between atoms: _114  and  _115
REMARK   51  A    between atoms: _118  and  _120
REMARK   52  A    between atoms: _120  and  _121
REMARK   53  A    between atoms: _123  and  _125
REMARK   54  A    between atoms: _125  and  _126
REMARK   55  A    between atoms: _128  and  _130
REMARK   56  A    between atoms: _130  and  _131
REMARK   57  A    between atoms: _130  and  _133
REMARK   58  A    between atoms: _133  and  _134
REMARK   59  A    between atoms: _137  and  _139
REMARK   60  A    between atoms: _139  and  _140
REMARK   61  A    between atoms: _142  and  _144
REMARK   62  A    between atoms: _144  and  _145
REMARK   63  A    between atoms: _147  and  _149
REMARK   64  A    between atoms: _149  and  _150
REMARK   65  A    between atoms: _149  and  _152
REMARK   66  A    between atoms: _152  and  _153
REMARK   67  A    between atoms: _159  and  _161
REMARK   68  A    between atoms: _161  and  _162
REMARK   69  A    between atoms: _161  and  _164
REMARK   70  A    between atoms: _164  and  _165
REMARK   71  A    between atoms: _168  and  _170
REMARK   72  A    between atoms: _170  and  _171
REMARK   73  A    between atoms: _170  and  _173
REMARK   74  A    between atoms: _176  and  _178
REMARK   75  A    between atoms: _178  and  _179
REMARK   76  A    between atoms: _178  and  _181
REMARK   77  A    between atoms: _181  and  _182
REMARK   78  A    between atoms: _185  and  _187
REMARK   79  A    between atoms: _187  and  _188
REMARK   80  A    between atoms: _187  and  _190
REMARK   81  A    between atoms: _190  and  _191
REMARK   82  A    between atoms: _195  and  _196
REMARK   83  A    between atoms: _201  and  _203
REMARK   84  A    between atoms: _203  and  _204
REMARK   85  A    between atoms: _203  and  _206
REMARK   86  A    between atoms: _209  and  _211
REMARK   87  A    between atoms: _211  and  _212
REMARK   88  A    between atoms: _211  and  _214
REMARK   89  A    between atoms: _214  and  _215
REMARK   90  A    between atoms: _220  and  _222
REMARK   91  A    between atoms: _222  and  _223
REMARK   92  A    between atoms: _222  and  _225
REMARK   93  A    between atoms: _225  and  _226
REMARK   94  A    between atoms: _229  and  _231
REMARK   95  A    between atoms: _231  and  _232
REMARK   96  A    between atoms: _231  and  _234
REMARK   97  A    between atoms: _234  and  _235
REMARK   98  A    between atoms: _238  and  _240
REMARK   99  A    between atoms: _240  and  _241
REMARK  100  A    between atoms: _243  and  _245
REMARK  101  A    between atoms: _245  and  _246
REMARK  102  A    between atoms: _245  and  _248
REMARK  103  A    between atoms: _248  and  _249
REMARK  104  A    between atoms: _249  and  _250
REMARK  105  A    between atoms: _250  and  _251
REMARK  106  A    between atoms: _260  and  _262
REMARK  107  A    between atoms: _262  and  _263
REMARK  108  A    between atoms: _262  and  _265
REMARK  109  A    between atoms: _265  and  _266
REMARK  110  A    between atoms: _271  and  _273
REMARK  111  A    between atoms: _273  and  _274
REMARK  112  A    between atoms: _273  and  _276
REMARK  113  A    between atoms: _276  and  _277
REMARK  114  A    between atoms: _277  and  _278
REMARK  115  A    between atoms: _278  and  _279
REMARK  116  A    between atoms: _288  and  _290
REMARK  117  A    between atoms: _290  and  _291
REMARK  118  A    between atoms: _290  and  _293
REMARK  119  A    between atoms: _293  and  _294
REMARK  120  A    between atoms: _297  and  _299
REMARK  121  A    between atoms: _299  and  _300
REMARK  122  A    between atoms: _299  and  _302
REMARK  123  A    between atoms: _302  and  _303
REMARK  124  A    between atoms: _306  and  _308
REMARK  125  A    between atoms: _308  and  _309
REMARK  126  A    between atoms: _308  and  _311
REMARK  127  A    between atoms: _311  and  _312
REMARK  128  A    between atoms: _315  and  _317
REMARK  129  A    between atoms: _317  and  _318
REMARK  130  A    between atoms: _317  and  _320
REMARK  131  A    between atoms: _320  and  _321
REMARK  132  A    between atoms: _324  and  _326
REMARK  133  A    between atoms: _326  and  _327
REMARK  134  A    between atoms: _329  and  _331
REMARK  135  A    between atoms: _331  and  _332
REMARK  136  A    between atoms: _335  and  _337
REMARK  137  A    between atoms: _337  and  _338
REMARK  138  A    between atoms: _337  and  _340
REMARK  139  A    between atoms: _340  and  _341
REMARK  140  A    between atoms: _344  and  _346
REMARK  141  A    between atoms: _346  and  _347
REMARK  142  A    between atoms: _346  and  _349
REMARK  143  A    between atoms: _349  and  _350
REMARK  144  A    between atoms: _353  and  _355
REMARK  145  A    between atoms: _355  and  _356
REMARK  146  A    between atoms: _355  and  _358
REMARK  147  A    between atoms: _358  and  _359
REMARK  148  A    between atoms: _362  and  _364
REMARK  149  A    between atoms: _364  and  _365
REMARK  150  A    between atoms: _364  and  _367
REMARK  151  A    between atoms: _370  and  _372
REMARK  152  A    between atoms: _372  and  _373
REMARK  153  A    between atoms: _372  and  _375
REMARK  154  A    between atoms: _375  and  _376
REMARK  155  A    between atoms: _376  and  _377
REMARK  156  A    between atoms: _377  and  _378
REMARK  157  A    between atoms: _378  and  _379
REMARK  158  A    between atoms: _383  and  _385
REMARK  159  A    between atoms: _385  and  _386
REMARK  160  A    between atoms: _385  and  _388
REMARK  161  A    between atoms: _388  and  _389
REMARK  162  A    between atoms: _389  and  _390
REMARK  163  A    between atoms: _392  and  _394
REMARK  164  A    between atoms: _394  and  _395
REMARK  165  A    between atoms: _394  and  _397
REMARK  166  A    between atoms: _397  and  _398
REMARK  167  A    between atoms: _401  and  _403
REMARK  168  A    between atoms: _403  and  _404
REMARK  169  A    between atoms: _406  and  _408
REMARK  170  A    between atoms: _408  and  _409
REMARK  171  A    between atoms: _411  and  _413
REMARK  172  A    between atoms: _413  and  _414
REMARK  173  A    between atoms: _413  and  _416
REMARK  174  A    between atoms: _416  and  _417
REMARK  175  A    between atoms: _420  and  _422
REMARK  176  A    between atoms: _422  and  _423
REMARK  177  A    between atoms: _425  and  _427
REMARK  178  A    between atoms: _427  and  _428
REMARK  179  A    between atoms: _430  and  _432
REMARK  180  A    between atoms: _432  and  _433
REMARK  181  A    between atoms: _432  and  _435
REMARK  182  A    between atoms: _435  and  _436
REMARK  183  A    between atoms: _442  and  _444
REMARK  184  A    between atoms: _444  and  _445
REMARK  185  A    between atoms: _444  and  _447
REMARK  186  A    between atoms: _447  and  _448
REMARK  187  A    between atoms: _451  and  _453
REMARK  188  A    between atoms: _453  and  _454
REMARK  189  A    between atoms: _453  and  _456
REMARK  190  A    between atoms: _456  and  _457
REMARK  191  A    between atoms: _460  and  _462
REMARK  192  A    between atoms: _462  and  _463
REMARK  193  A    between atoms: _462  and  _465
REMARK  194  A    between atoms: _465  and  _466
REMARK  195  A    between atoms: _470  and  _471
REMARK  196  A    between atoms: _476  and  _478
REMARK  197  A    between atoms: _478  and  _479
REMARK  198  A    between atoms: _478  and  _481
REMARK  199  A    between atoms: _484  and  _486
REMARK  200  A    between atoms: _486  and  _487
REMARK  201  A    between atoms: _486  and  _489
REMARK  202  A    between atoms: _489  and  _490
REMARK  203  A    between atoms: _495  and  _497
REMARK  204  A    between atoms: _497  and  _498
REMARK  205  A    between atoms: _497  and  _500
REMARK  206  A    between atoms: _500  and  _501
REMARK  207  A    between atoms: _504  and  _506
REMARK  208  A    between atoms: _506  and  _507
REMARK  209  A    between atoms: _506  and  _509
REMARK  210  A    between atoms: _509  and  _510
REMARK  211  A    between atoms: _513  and  _515
REMARK  212  A    between atoms: _515  and  _516
REMARK  213  A    between atoms: _518  and  _520
REMARK  214  A    between atoms: _520  and  _521
REMARK  215  A    between atoms: _520  and  _523
REMARK  216  A    between atoms: _523  and  _524
REMARK  217  A    between atoms: _524  and  _525
REMARK  218  A    between atoms: _525  and  _526
REMARK  219  A    between atoms: _535  and  _537
REMARK  220  A    between atoms: _537  and  _538
REMARK  221  A    between atoms: _537  and  _540
REMARK  222  A    between atoms: _540  and  _541
REMARK                            x       y       z     vdW  Elec       q    Type
REMARK                         _______ _______ _______ _____ _____    ______ ____
ROOT
ATOM      1  C   ILE A   5      11.565  27.570  18.050  0.00  0.00    +0.241 C 
ATOM      2  N   ILE A   6      11.813  26.697  19.027  0.00  0.00    -0.297 N 
ATOM      3  H   ILE A   6      12.278  25.795  18.799  0.00  0.00    +0.150 HD
ATOM      4  O   ILE A   5      10.850  28.554  18.208  0.00  0.00    -0.273 OA
ENDROOT
BRANCH   2   5
ATOM      5  CA  ILE A   6      11.446  26.980  20.404  0.00  0.00    +0.149 C 
BRANCH   5   6
ATOM      6  C   ILE A   6      12.622  27.657  21.099  0.00  0.00    +0.241 C 
ATOM      7  N   GLY A   7      12.418  28.922  21.451  0.00  0.00    -0.295 N 
ATOM      8  H   GLY A   7      11.482  29.341  21.277  0.00  0.00    +0.150 HD
ATOM      9  O   ILE A   6      13.684  27.045  21.307  0.00  0.00    -0.273 OA
BRANCH   7  10
ATOM     10  CA  GLY A   7      13.444  29.747  22.068  0.00  0.00    +0.176 C 
BRANCH  10  11
ATOM     11  C   GLY A   7      13.398  29.736  23.568  0.00  0.00    +0.243 C 
ATOM     12  O   GLY A   7      12.493  29.142  24.170  0.00  0.00    -0.273 OA
ATOM     13  N   ARG A   8      14.360  30.438  24.169  0.00  0.00    -0.297 N 
ATOM     14  H   ARG A   8      15.000  31.011  23.583  0.00  0.00    +0.150 HD
BRANCH  13  15
ATOM     15  CA  ARG A   8      14.551  30.434  25.614  0.00  0.00    +0.149 C 
BRANCH  15  16
ATOM     16  C   ARG A   8      13.343  30.921  26.401  0.00  0.00    +0.241 C 
ATOM     17  O   ARG A   8      13.121  30.469  27.516  0.00  0.00    -0.273 OA
ATOM     18  N   ASN A   9      12.561  31.830  25.822  0.00  0.00    -0.298 N 
ATOM     19  H   ASN A   9      12.819  32.200  24.885  0.00  0.00    +0.150 HD
BRANCH  18  20
ATOM     20  CA  ASN A   9      11.352  32.318  26.472  0.00  0.00    +0.146 C 
BRANCH  20  21
ATOM     21  C   ASN A   9      10.375  31.194  26.863  0.00  0.00    +0.227 C 
ATOM     22  O   ASN A   9       9.695  31.301  27.873  0.00  0.00    -0.286 OA
ENDBRANCH  20  21
BRANCH  20  23
ATOM     23  CB  ASN A   9      10.667  33.390  25.617  0.00  0.00    +0.112 C 
BRANCH  23  24
ATOM     24  CG  ASN A   9       9.959  32.821  24.399  0.00  0.00    +0.222 C 
ATOM     25  ND2 ASN A   9       8.669  33.160  24.255  0.00  0.00    -0.329 N 
ATOM     26 HD21 ASN A   9       8.211  33.775  24.958  0.00  0.00    +0.145 HD
ATOM     27 HD22 ASN A   9       8.126  32.808  23.441  0.00  0.00    +0.145 HD
ATOM     28  OD1 ASN A   9      10.554  32.093  23.595  0.00  0.00    -0.275 OA
ENDBRANCH  23  24
ENDBRANCH  20  23
ENDBRANCH  18  20
ENDBRANCH  15  16
BRANCH  15  29
ATOM     29  CB  ARG A   8      15.795  31.230  26.007  0.00  0.00    +0.033 C 
BRANCH  29  30
ATOM     30  CG  ARG A   8      17.103  30.571  25.545  0.00  0.00    +0.045 C 
BRANCH  30  31
ATOM     31  CD  ARG A   8      18.333  31.316  26.049  0.00  0.00    +0.174 C 
BRANCH  31  32
ATOM     32  NE  ARG A   8      18.383  32.700  25.570  0.00  0.00    -0.265 N 
ATOM     33  CZ  ARG A   8      18.034  33.783  26.270  0.00  0.00    +0.342 C 
ATOM     34  NH2 ARG A   8      17.567  33.704  27.510  0.00  0.00    -0.292 N 
ATOM     35 HH21 ARG A   8      17.306  34.570  28.023  0.00  0.00    +0.255 HD
ATOM     36 HH22 ARG A   8      17.462  32.776  27.968  0.00  0.00    +0.255 HD
ATOM     37  NH1 ARG A   8      18.145  34.977  25.700  0.00  0.00    -0.292 N 
ATOM     38 HH11 ARG A   8      17.878  35.832  26.228  0.00  0.00    +0.255 HD
ATOM     39 HH12 ARG A   8      18.499  35.057  24.725  0.00  0.00    +0.255 HD
ATOM     40  HE  ARG A   8      18.720  32.853  24.598  0.00  0.00    +0.259 HD
ENDBRANCH  31  32
ENDBRANCH  30  31
ENDBRANCH  29  30
ENDBRANCH  15  29
ENDBRANCH  13  15
ENDBRANCH  10  11
ENDBRANCH   7  10
ENDBRANCH   5   6
BRANCH   5  41
ATOM     41  CB  ILE A   6      11.041  25.712  21.180  0.00  0.00    +0.027 C 
ATOM     42  CG2 ILE A   6      10.564  26.083  22.586  0.00  0.00    +0.002 C 
BRANCH  41  43
ATOM     43  CG1 ILE A   6       9.957  24.919  20.423  0.00  0.00    +0.002 C 
ATOM     44  CD1 ILE A   6       8.716  25.702  20.042  0.00  0.00    +0.000 C 
ENDBRANCH  41  43
ENDBRANCH   5  41
ENDBRANCH   2   5
BRANCH   1  45
ATOM     45  CA  ILE A   5      12.191  27.277  16.681  0.00  0.00    +0.149 C 
BRANCH  45  47
ATOM     46  C   ASN A   4      11.128  25.985  14.892  0.00  0.00    +0.241 C 
ATOM     47  N   ILE A   5      11.170  27.071  15.664  0.00  0.00    -0.297 N 
ATOM     48  H   ILE A   5      10.442  27.802  15.534  0.00  0.00    +0.150 HD
ATOM     49  O   ASN A   4      11.860  24.993  15.059  0.00  0.00    -0.273 OA
BRANCH  46  50
ATOM     50  CA  ASN A   4      10.116  26.008  13.755  0.00  0.00    +0.158 C 
BRANCH  50  52
ATOM     51  C   VAL A   3      11.632  26.384  11.879  0.00  0.00    +0.241 C 
ATOM     52  N   ASN A   4      10.797  25.580  12.531  0.00  0.00    -0.297 N 
ATOM     53  H   ASN A   4      10.623  24.623  12.162  0.00  0.00    +0.150 HD
ATOM     54  O   VAL A   3      11.809  27.563  12.192  0.00  0.00    -0.273 OA
BRANCH  51  55
ATOM     55  CA  VAL A   3      12.372  25.773  10.684  0.00  0.00    +0.149 C 
BRANCH  55  57
ATOM     56  C   PRO A   2      12.504  26.478   8.357  0.00  0.00    +0.241 C 
ATOM     57  N   VAL A   3      12.556  26.776   9.652  0.00  0.00    -0.297 N 
ATOM     58  H   VAL A   3      12.735  27.761   9.934  0.00  0.00    +0.150 HD
ATOM     59  O   PRO A   2      12.263  25.342   7.934  0.00  0.00    -0.273 OA
BRANCH  56  66
ATOM     60  C   THR A   1      11.514  29.510   8.304  0.00  0.00    +0.244 C 
ATOM     61  O   THR A   1      10.442  28.946   8.100  0.00  0.00    -0.273 OA
ATOM     62  N   PRO A   2      12.695  28.969   7.952  0.00  0.00    -0.272 N 
ATOM     63  CD  PRO A   2      14.033  29.576   8.091  0.00  0.00    +0.094 C 
ATOM     64  CG  PRO A   2      14.969  28.447   7.758  0.00  0.00    +0.024 C 
ATOM     65  CB  PRO A   2      14.213  27.542   6.864  0.00  0.00    +0.031 C 
ATOM     66  CA  PRO A   2      12.766  27.622   7.373  0.00  0.00    +0.152 C 
BRANCH  60  67
ATOM     67  CA  THR A   1      11.544  30.879   8.990  0.00  0.00    +0.172 C 
BRANCH  67  68
ATOM     68  N   THR A   1      10.407  31.655   8.521  0.00  0.00    -0.236 NA
ATOM     69  H   THR A   1       9.552  31.700   9.111  0.00  0.00    +0.142 HD
ENDBRANCH  67  68
BRANCH  67  70
ATOM     70  CB  THR A   1      11.543  30.718  10.537  0.00  0.00    +0.135 C 
ATOM     71  CG2 THR A   1      10.210  30.160  11.068  0.00  0.00    +0.034 C 
BRANCH  70  72
ATOM     72  OG1 THR A   1      12.602  29.839  10.936  0.00  0.00    -0.383 OA
ATOM     73  HG1 THR A   1      12.470  28.953  10.515  0.00  0.00    +0.210 HD
ENDBRANCH  70  72
ENDBRANCH  67  70
ENDBRANCH  60  67
ENDBRANCH  56  66
ENDBRANCH  55  57
BRANCH  55  74
ATOM     74  CB  VAL A   3      13.750  25.187  11.112  0.00  0.00    +0.027 C 
ATOM     75  CG2 VAL A   3      13.578  23.987  12.029  0.00  0.00    +0.002 C 
ATOM     76  CG1 VAL A   3      14.636  26.260  11.758  0.00  0.00    +0.002 C 
ENDBRANCH  55  74
ENDBRANCH  51  55
ENDBRANCH  50  52
BRANCH  50  77
ATOM     77  CB  ASN A   4       8.943  25.087  14.101  0.00  0.00    +0.114 C 
BRANCH  77  78
ATOM     78  CG  ASN A   4       7.769  25.238  13.156  0.00  0.00    +0.222 C 
ATOM     79  OD1 ASN A   4       7.287  26.348  12.901  0.00  0.00    -0.275 OA
ATOM     80  ND2 ASN A   4       7.280  24.115  12.657  0.00  0.00    -0.329 N 
ATOM     81 HD21 ASN A   4       7.719  23.204  12.900  0.00  0.00    +0.145 HD
ATOM     82 HD22 ASN A   4       6.457  24.143  12.022  0.00  0.00    +0.145 HD
ENDBRANCH  77  78
ENDBRANCH  50  77
ENDBRANCH  46  50
ENDBRANCH  45  47
BRANCH  45  83
ATOM     83  CB  ILE A   5      13.123  28.445  16.282  0.00  0.00    +0.027 C 
ATOM     84  CG2 ILE A   5      14.055  28.814  17.422  0.00  0.00    +0.002 C 
BRANCH  83  85
ATOM     85  CG1 ILE A   5      13.953  28.067  15.055  0.00  0.00    +0.002 C 
ATOM     86  CD1 ILE A   5      14.531  29.254  14.331  0.00  0.00    +0.000 C 
ENDBRANCH  83  85
ENDBRANCH  45  83
ENDBRANCH   1  45
TORSDOF 32
REMARK  Name = ../refined-set-2016/3mxd/3mxd_pocket.pdb
REMARK  222 active torsions:
REMARK  status: ('A' for Active; 'I' for Inactive)
REMARK    1  A    between atoms: _1  and  _3
REMARK    2  A    between atoms: _3  and  _4
REMARK    3  A    between atoms: _3  and  _6
REMARK    4  A    between atoms: _6  and  _7
REMARK    5  A    between atoms: _7  and  _8
REMARK    6  A    between atoms: _8  and  _9
REMARK    7  A    between atoms: _18  and  _20
REMARK    8  A    between atoms: _20  and  _21
REMARK    9  A    between atoms: _20  and  _23
REMARK   10  A    between atoms: _23  and  _24
REMARK   11  A    between atoms: _27  and  _29
REMARK   12  A    between atoms: _29  and  _30
REMARK   13  A    between atoms: _29  and  _32
REMARK   14  A    between atoms: _32  and  _33
REMARK   15  A    between atoms: _36  and  _38
REMARK   16  A    between atoms: _38  and  _39
REMARK   17  A    between atoms: _38  and  _41
REMARK   18  A    between atoms: _41  and  _42
REMARK   19  A    between atoms: _45  and  _47
REMARK   20  A    between atoms: _47  and  _48
REMARK   21  A    between atoms: _47  and  _50
REMARK   22  A    between atoms: _50  and  _51
REMARK   23  A    between atoms: _54  and  _56
REMARK   24  A    between atoms: _56  and  _57
REMARK   25  A    between atoms: _59  and  _61
REMARK   26  A    between atoms: _61  and  _62
REMARK   27  A    between atoms: _65  and  _67
REMARK   28  A    between atoms: _67  and  _68
REMARK   29  A    between atoms: _67  and  _70
REMARK   30  A    between atoms: _70  and  _71
REMARK   31  A    between atoms: _74  and  _76
REMARK   32  A    between atoms: _76  and  _77
REMARK   33  A    between atoms: _76  and  _79
REMARK   34  A    between atoms: _79  and  _80
REMARK   35  A    between atoms: _83  and  _85
REMARK   36  A    between atoms: _85  and  _86
REMARK   37  A    between atoms: _85  and  _88
REMARK   38  A    between atoms: _88  and  _89
REMARK   39  A    between atoms: _92  and  _94
REMARK   40  A    between atoms: _94  and  _95
REMARK   41  A    between atoms: _94  and  _97
REMARK   42  A    between atoms: _100  and  _102
REMARK   43  A    between atoms: _102  and  _103
REMARK   44  A    between atoms: _102  and  _105
REMARK   45  A    between atoms: _105  and  _106
REMARK   46  A    between atoms: _106  and  _107
REMARK   47  A    between atoms: _109  and  _111
REMARK   48  A    between atoms: _111  and  _112
REMARK   49  A    between atoms: _111  and  _114
REMARK   50  A    between atoms: _114  and  _115
REMARK   51  A    between atoms: _118  and  _120
REMARK   52  A    between atoms: _120  and  _121
REMARK   53  A    between atoms: _123  and  _125
REMARK   54  A    between atoms: _125  and  _126
REMARK   55  A    between atoms: _128  and  _130
REMARK   56  A    between atoms: _130  and  _131
REMARK   57  A    between atoms: _130  and  _133
REMARK   58  A    between atoms: _133  and  _134
REMARK   59  A    between atoms: _137  and  _139
REMARK   60  A    between atoms: _139  and  _140
REMARK   61  A    between atoms: _142  and  _144
REMARK   62  A    between atoms: _144  and  _145
REMARK   63  A    between atoms: _147  and  _149
REMARK   64  A    between atoms: _149  and  _150
REMARK   65  A    between atoms: _149  and  _152
REMARK   66  A    between atoms: _152  and  _153
REMARK   67  A    between atoms: _159  and  _161
REMARK   68  A    between atoms: _161  and  _162
REMARK   69  A    between atoms: _161  and  _164
REMARK   70  A    between atoms: _164  and  _165
REMARK   71  A    between atoms: _168  and  _170
REMARK   72  A    between atoms: _170  and  _171
REMARK   73  A    between atoms: _170  and  _173
REMARK   74  A    between atoms: _176  and  _178
REMARK   75  A    between atoms: _178  and  _179
REMARK   76  A    between atoms: _178  and  _181
REMARK   77  A    between atoms: _181  and  _182
REMARK   78  A    between atoms: _185  and  _187
REMARK   79  A    between atoms: _187  and  _188
REMARK   80  A    between atoms: _187  and  _190
REMARK   81  A    between atoms: _190  and  _191
REMARK   82  A    between atoms: _195  and  _196
REMARK   83  A    between atoms: _201  and  _203
REMARK   84  A    between atoms: _203  and  _204
REMARK   85  A    between atoms: _203  and  _206
REMARK   86  A    between atoms: _209  and  _211
REMARK   87  A    between atoms: _211  and  _212
REMARK   88  A    between atoms: _211  and  _214
REMARK   89  A    between atoms: _214  and  _215
REMARK   90  A    between atoms: _220  and  _222
REMARK   91  A    between atoms: _222  and  _223
REMARK   92  A    between atoms: _222  and  _225
REMARK   93  A    between atoms: _225  and  _226
REMARK   94  A    between atoms: _229  and  _231
REMARK   95  A    between atoms: _231  and  _232
REMARK   96  A    between atoms: _231  and  _234
REMARK   97  A    between atoms: _234  and  _235
REMARK   98  A    between atoms: _238  and  _240
REMARK   99  A    between atoms: _240  and  _241
REMARK  100  A    between atoms: _243  and  _245
REMARK  101  A    between atoms: _245  and  _246
REMARK  102  A    between atoms: _245  and  _248
REMARK  103  A    between atoms: _248  and  _249
REMARK  104  A    between atoms: _249  and  _250
REMARK  105  A    between atoms: _250  and  _251
REMARK  106  A    between atoms: _260  and  _262
REMARK  107  A    between atoms: _262  and  _263
REMARK  108  A    between atoms: _262  and  _265
REMARK  109  A    between atoms: _265  and  _266
REMARK  110  A    between atoms: _271  and  _273
REMARK  111  A    between atoms: _273  and  _274
REMARK  112  A    between atoms: _273  and  _276
REMARK  113  A    between atoms: _276  and  _277
REMARK  114  A    between atoms: _277  and  _278
REMARK  115  A    between atoms: _278  and  _279
REMARK  116  A    between atoms: _288  and  _290
REMARK  117  A    between atoms: _290  and  _291
REMARK  118  A    between atoms: _290  and  _293
REMARK  119  A    between atoms: _293  and  _294
REMARK  120  A    between atoms: _297  and  _299
REMARK  121  A    between atoms: _299  and  _300
REMARK  122  A    between atoms: _299  and  _302
REMARK  123  A    between atoms: _302  and  _303
REMARK  124  A    between atoms: _306  and  _308
REMARK  125  A    between atoms: _308  and  _309
REMARK  126  A    between atoms: _308  and  _311
REMARK  127  A    between atoms: _311  and  _312
REMARK  128  A    between atoms: _315  and  _317
REMARK  129  A    between atoms: _317  and  _318
REMARK  130  A    between atoms: _317  and  _320
REMARK  131  A    between atoms: _320  and  _321
REMARK  132  A    between atoms: _324  and  _326
REMARK  133  A    between atoms: _326  and  _327
REMARK  134  A    between atoms: _329  and  _331
REMARK  135  A    between atoms: _331  and  _332
REMARK  136  A    between atoms: _335  and  _337
REMARK  137  A    between atoms: _337  and  _338
REMARK  138  A    between atoms: _337  and  _340
REMARK  139  A    between atoms: _340  and  _341
REMARK  140  A    between atoms: _344  and  _346
REMARK  141  A    between atoms: _346  and  _347
REMARK  142  A    between atoms: _346  and  _349
REMARK  143  A    between atoms: _349  and  _350
REMARK  144  A    between atoms: _353  and  _355
REMARK  145  A    between atoms: _355  and  _356
REMARK  146  A    between atoms: _355  and  _358
REMARK  147  A    between atoms: _358  and  _359
REMARK  148  A    between atoms: _362  and  _364
REMARK  149  A    between atoms: _364  and  _365
REMARK  150  A    between atoms: _364  and  _367
REMARK  151  A    between atoms: _370  and  _372
REMARK  152  A    between atoms: _372  and  _373
REMARK  153  A    between atoms: _372  and  _375
REMARK  154  A    between atoms: _375  and  _376
REMARK  155  A    between atoms: _376  and  _377
REMARK  156  A    between atoms: _377  and  _378
REMARK  157  A    between atoms: _378  and  _379
REMARK  158  A    between atoms: _383  and  _385
REMARK  159  A    between atoms: _385  and  _386
REMARK  160  A    between atoms: _385  and  _388
REMARK  161  A    between atoms: _388  and  _389
REMARK  162  A    between atoms: _389  and  _390
REMARK  163  A    between atoms: _392  and  _394
REMARK  164  A    between atoms: _394  and  _395
REMARK  165  A    between atoms: _394  and  _397
REMARK  166  A    between atoms: _397  and  _398
REMARK  167  A    between atoms: _401  and  _403
REMARK  168  A    between atoms: _403  and  _404
REMARK  169  A    between atoms: _406  and  _408
REMARK  170  A    between atoms: _408  and  _409
REMARK  171  A    between atoms: _411  and  _413
REMARK  172  A    between atoms: _413  and  _414
REMARK  173  A    between atoms: _413  and  _416
REMARK  174  A    between atoms: _416  and  _417
REMARK  175  A    between atoms: _420  and  _422
REMARK  176  A    between atoms: _422  and  _423
REMARK  177  A    between atoms: _425  and  _427
REMARK  178  A    between atoms: _427  and  _428
REMARK  179  A    between atoms: _430  and  _432
REMARK  180  A    between atoms: _432  and  _433
REMARK  181  A    between atoms: _432  and  _435
REMARK  182  A    between atoms: _435  and  _436
REMARK  183  A    between atoms: _442  and  _444
REMARK  184  A    between atoms: _444  and  _445
REMARK  185  A    between atoms: _444  and  _447
REMARK  186  A    between atoms: _447  and  _448
REMARK  187  A    between atoms: _451  and  _453
REMARK  188  A    between atoms: _453  and  _454
REMARK  189  A    between atoms: _453  and  _456
REMARK  190  A    between atoms: _456  and  _457
REMARK  191  A    between atoms: _460  and  _462
REMARK  192  A    between atoms: _462  and  _463
REMARK  193  A    between atoms: _462  and  _465
REMARK  194  A    between atoms: _465  and  _466
REMARK  195  A    between atoms: _470  and  _471
REMARK  196  A    between atoms: _476  and  _478
REMARK  197  A    between atoms: _478  and  _479
REMARK  198  A    between atoms: _478  and  _481
REMARK  199  A    between atoms: _484  and  _486
REMARK  200  A    between atoms: _486  and  _487
REMARK  201  A    between atoms: _486  and  _489
REMARK  202  A    between atoms: _489  and  _490
REMARK  203  A    between atoms: _495  and  _497
REMARK  204  A    between atoms: _497  and  _498
REMARK  205  A    between atoms: _497  and  _500
REMARK  206  A    between atoms: _500  and  _501
REMARK  207  A    between atoms: _504  and  _506
REMARK  208  A    between atoms: _506  and  _507
REMARK  209  A    between atoms: _506  and  _509
REMARK  210  A    between atoms: _509  and  _510
REMARK  211  A    between atoms: _513  and  _515
REMARK  212  A    between atoms: _515  and  _516
REMARK  213  A    between atoms: _518  and  _520
REMARK  214  A    between atoms: _520  and  _521
REMARK  215  A    between atoms: _520  and  _523
REMARK  216  A    between atoms: _523  and  _524
REMARK  217  A    between atoms: _524  and  _525
REMARK  218  A    between atoms: _525  and  _526
REMARK  219  A    between atoms: _535  and  _537
REMARK  220  A    between atoms: _537  and  _538
REMARK  221  A    between atoms: _537  and  _540
REMARK  222  A    between atoms: _540  and  _541
REMARK                            x       y       z     vdW  Elec       q    Type
REMARK                         _______ _______ _______ _____ _____    ______ ____
ROOT
ATOM      1  O   HOH     1      20.278  21.562  15.639  0.00  0.00    +0.000 OA
ENDROOT
TORSDOF 0
REMARK  Name = ../refined-set-2016/3mxd/3mxd_pocket.pdb
REMARK  222 active torsions:
REMARK  status: ('A' for Active; 'I' for Inactive)
REMARK    1  A    between atoms: _1  and  _3
REMARK    2  A    between atoms: _3  and  _4
REMARK    3  A    between atoms: _3  and  _6
REMARK    4  A    between atoms: _6  and  _7
REMARK    5  A    between atoms: _7  and  _8
REMARK    6  A    between atoms: _8  and  _9
REMARK    7  A    between atoms: _18  and  _20
REMARK    8  A    between atoms: _20  and  _21
REMARK    9  A    between atoms: _20  and  _23
REMARK   10  A    between atoms: _23  and  _24
REMARK   11  A    between atoms: _27  and  _29
REMARK   12  A    between atoms: _29  and  _30
REMARK   13  A    between atoms: _29  and  _32
REMARK   14  A    between atoms: _32  and  _33
REMARK   15  A    between atoms: _36  and  _38
REMARK   16  A    between atoms: _38  and  _39
REMARK   17  A    between atoms: _38  and  _41
REMARK   18  A    between atoms: _41  and  _42
REMARK   19  A    between atoms: _45  and  _47
REMARK   20  A    between atoms: _47  and  _48
REMARK   21  A    between atoms: _47  and  _50
REMARK   22  A    between atoms: _50  and  _51
REMARK   23  A    between atoms: _54  and  _56
REMARK   24  A    between atoms: _56  and  _57
REMARK   25  A    between atoms: _59  and  _61
REMARK   26  A    between atoms: _61  and  _62
REMARK   27  A    between atoms: _65  and  _67
REMARK   28  A    between atoms: _67  and  _68
REMARK   29  A    between atoms: _67  and  _70
REMARK   30  A    between atoms: _70  and  _71
REMARK   31  A    between atoms: _74  and  _76
REMARK   32  A    between atoms: _76  and  _77
REMARK   33  A    between atoms: _76  and  _79
REMARK   34  A    between atoms: _79  and  _80
REMARK   35  A    between atoms: _83  and  _85
REMARK   36  A    between atoms: _85  and  _86
REMARK   37  A    between atoms: _85  and  _88
REMARK   38  A    between atoms: _88  and  _89
REMARK   39  A    between atoms: _92  and  _94
REMARK   40  A    between atoms: _94  and  _95
REMARK   41  A    between atoms: _94  and  _97
REMARK   42  A    between atoms: _100  and  _102
REMARK   43  A    between atoms: _102  and  _103
REMARK   44  A    between atoms: _102  and  _105
REMARK   45  A    between atoms: _105  and  _106
REMARK   46  A    between atoms: _106  and  _107
REMARK   47  A    between atoms: _109  and  _111
REMARK   48  A    between atoms: _111  and  _112
REMARK   49  A    between atoms: _111  and  _114
REMARK   50  A    between atoms: _114  and  _115
REMARK   51  A    between atoms: _118  and  _120
REMARK   52  A    between atoms: _120  and  _121
REMARK   53  A    between atoms: _123  and  _125
REMARK   54  A    between atoms: _125  and  _126
REMARK   55  A    between atoms: _128  and  _130
REMARK   56  A    between atoms: _130  and  _131
REMARK   57  A    between atoms: _130  and  _133
REMARK   58  A    between atoms: _133  and  _134
REMARK   59  A    between atoms: _137  and  _139
REMARK   60  A    between atoms: _139  and  _140
REMARK   61  A    between atoms: _142  and  _144
REMARK   62  A    between atoms: _144  and  _145
REMARK   63  A    between atoms: _147  and  _149
REMARK   64  A    between atoms: _149  and  _150
REMARK   65  A    between atoms: _149  and  _152
REMARK   66  A    between atoms: _152  and  _153
REMARK   67  A    between atoms: _159  and  _161
REMARK   68  A    between atoms: _161  and  _162
REMARK   69  A    between atoms: _161  and  _164
REMARK   70  A    between atoms: _164  and  _165
REMARK   71  A    between atoms: _168  and  _170
REMARK   72  A    between atoms: _170  and  _171
REMARK   73  A    between atoms: _170  and  _173
REMARK   74  A    between atoms: _176  and  _178
REMARK   75  A    between atoms: _178  and  _179
REMARK   76  A    between atoms: _178  and  _181
REMARK   77  A    between atoms: _181  and  _182
REMARK   78  A    between atoms: _185  and  _187
REMARK   79  A    between atoms: _187  and  _188
REMARK   80  A    between atoms: _187  and  _190
REMARK   81  A    between atoms: _190  and  _191
REMARK   82  A    between atoms: _195  and  _196
REMARK   83  A    between atoms: _201  and  _203
REMARK   84  A    between atoms: _203  and  _204
REMARK   85  A    between atoms: _203  and  _206
REMARK   86  A    between atoms: _209  and  _211
REMARK   87  A    between atoms: _211  and  _212
REMARK   88  A    between atoms: _211  and  _214
REMARK   89  A    between atoms: _214  and  _215
REMARK   90  A    between atoms: _220  and  _222
REMARK   91  A    between atoms: _222  and  _223
REMARK   92  A    between atoms: _222  and  _225
REMARK   93  A    between atoms: _225  and  _226
REMARK   94  A    between atoms: _229  and  _231
REMARK   95  A    between atoms: _231  and  _232
REMARK   96  A    between atoms: _231  and  _234
REMARK   97  A    between atoms: _234  and  _235
REMARK   98  A    between atoms: _238  and  _240
REMARK   99  A    between atoms: _240  and  _241
REMARK  100  A    between atoms: _243  and  _245
REMARK  101  A    between atoms: _245  and  _246
REMARK  102  A    between atoms: _245  and  _248
REMARK  103  A    between atoms: _248  and  _249
REMARK  104  A    between atoms: _249  and  _250
REMARK  105  A    between atoms: _250  and  _251
REMARK  106  A    between atoms: _260  and  _262
REMARK  107  A    between atoms: _262  and  _263
REMARK  108  A    between atoms: _262  and  _265
REMARK  109  A    between atoms: _265  and  _266
REMARK  110  A    between atoms: _271  and  _273
REMARK  111  A    between atoms: _273  and  _274
REMARK  112  A    between atoms: _273  and  _276
REMARK  113  A    between atoms: _276  and  _277
REMARK  114  A    between atoms: _277  and  _278
REMARK  115  A    between atoms: _278  and  _279
REMARK  116  A    between atoms: _288  and  _290
REMARK  117  A    between atoms: _290  and  _291
REMARK  118  A    between atoms: _290  and  _293
REMARK  119  A    between atoms: _293  and  _294
REMARK  120  A    between atoms: _297  and  _299
REMARK  121  A    between atoms: _299  and  _300
REMARK  122  A    between atoms: _299  and  _302
REMARK  123  A    between atoms: _302  and  _303
REMARK  124  A    between atoms: _306  and  _308
REMARK  125  A    between atoms: _308  and  _309
REMARK  126  A    between atoms: _308  and  _311
REMARK  127  A    between atoms: _311  and  _312
REMARK  128  A    between atoms: _315  and  _317
REMARK  129  A    between atoms: _317  and  _318
REMARK  130  A    between atoms: _317  and  _320
REMARK  131  A    between atoms: _320  and  _321
REMARK  132  A    between atoms: _324  and  _326
REMARK  133  A    between atoms: _326  and  _327
REMARK  134  A    between atoms: _329  and  _331
REMARK  135  A    between atoms: _331  and  _332
REMARK  136  A    between atoms: _335  and  _337
REMARK  137  A    between atoms: _337  and  _338
REMARK  138  A    between atoms: _337  and  _340
REMARK  139  A    between atoms: _340  and  _341
REMARK  140  A    between atoms: _344  and  _346
REMARK  141  A    between atoms: _346  and  _347
REMARK  142  A    between atoms: _346  and  _349
REMARK  143  A    between atoms: _349  and  _350
REMARK  144  A    between atoms: _353  and  _355
REMARK  145  A    between atoms: _355  and  _356
REMARK  146  A    between atoms: _355  and  _358
REMARK  147  A    between atoms: _358  and  _359
REMARK  148  A    between atoms: _362  and  _364
REMARK  149  A    between atoms: _364  and  _365
REMARK  150  A    between atoms: _364  and  _367
REMARK  151  A    between atoms: _370  and  _372
REMARK  152  A    between atoms: _372  and  _373
REMARK  153  A    between atoms: _372  and  _375
REMARK  154  A    between atoms: _375  and  _376
REMARK  155  A    between atoms: _376  and  _377
REMARK  156  A    between atoms: _377  and  _378
REMARK  157  A    between atoms: _378  and  _379
REMARK  158  A    between atoms: _383  and  _385
REMARK  159  A    between atoms: _385  and  _386
REMARK  160  A    between atoms: _385  and  _388
REMARK  161  A    between atoms: _388  and  _389
REMARK  162  A    between atoms: _389  and  _390
REMARK  163  A    between atoms: _392  and  _394
REMARK  164  A    between atoms: _394  and  _395
REMARK  165  A    between atoms: _394  and  _397
REMARK  166  A    between atoms: _397  and  _398
REMARK  167  A    between atoms: _401  and  _403
REMARK  168  A    between atoms: _403  and  _404
REMARK  169  A    between atoms: _406  and  _408
REMARK  170  A    between atoms: _408  and  _409
REMARK  171  A    between atoms: _411  and  _413
REMARK  172  A    between atoms: _413  and  _414
REMARK  173  A    between atoms: _413  and  _416
REMARK  174  A    between atoms: _416  and  _417
REMARK  175  A    between atoms: _420  and  _422
REMARK  176  A    between atoms: _422  and  _423
REMARK  177  A    between atoms: _425  and  _427
REMARK  178  A    between atoms: _427  and  _428
REMARK  179  A    between atoms: _430  and  _432
REMARK  180  A    between atoms: _432  and  _433
REMARK  181  A    between atoms: _432  and  _435
REMARK  182  A    between atoms: _435  and  _436
REMARK  183  A    between atoms: _442  and  _444
REMARK  184  A    between atoms: _444  and  _445
REMARK  185  A    between atoms: _444  and  _447
REMARK  186  A    between atoms: _447  and  _448
REMARK  187  A    between atoms: _451  and  _453
REMARK  188  A    between atoms: _453  and  _454
REMARK  189  A    between atoms: _453  and  _456
REMARK  190  A    between atoms: _456  and  _457
REMARK  191  A    between atoms: _460  and  _462
REMARK  192  A    between atoms: _462  and  _463
REMARK  193  A    between atoms: _462  and  _465
REMARK  194  A    between atoms: _465  and  _466
REMARK  195  A    between atoms: _470  and  _471
REMARK  196  A    between atoms: _476  and  _478
REMARK  197  A    between atoms: _478  and  _479
REMARK  198  A    between atoms: _478  and  _481
REMARK  199  A    between atoms: _484  and  _486
REMARK  200  A    between atoms: _486  and  _487
REMARK  201  A    between atoms: _486  and  _489
REMARK  202  A    between atoms: _489  and  _490
REMARK  203  A    between atoms: _495  and  _497
REMARK  204  A    between atoms: _497  and  _498
REMARK  205  A    between atoms: _497  and  _500
REMARK  206  A    between atoms: _500  and  _501
REMARK  207  A    between atoms: _504  and  _506
REMARK  208  A    between atoms: _506  and  _507
REMARK  209  A    between atoms: _506  and  _509
REMARK  210  A    between atoms: _509  and  _510
REMARK  211  A    between atoms: _513  and  _515
REMARK  212  A    between atoms: _515  and  _516
REMARK  213  A    between atoms: _518  and  _520
REMARK  214  A    between atoms: _520  and  _521
REMARK  215  A    between atoms: _520  and  _523
REMARK  216  A    between atoms: _523  and  _524
REMARK  217  A    between atoms: _524  and  _525
REMARK  218  A    between atoms: _525  and  _526
REMARK  219  A    between atoms: _535  and  _537
REMARK  220  A    between atoms: _537  and  _538
REMARK  221  A    between atoms: _537  and  _540
REMARK  222  A    between atoms: _540  and  _541
REMARK                            x       y       z     vdW  Elec       q    Type
REMARK                         _______ _______ _______ _____ _____    ______ ____
ROOT
ATOM      1  O   HOH     1      19.706  22.863  13.359  0.00  0.00    +0.000 OA
ENDROOT
TORSDOF 0
REMARK  Name = ../refined-set-2016/3mxd/3mxd_pocket.pdb
REMARK  222 active torsions:
REMARK  status: ('A' for Active; 'I' for Inactive)
REMARK    1  A    between atoms: _1  and  _3
REMARK    2  A    between atoms: _3  and  _4
REMARK    3  A    between atoms: _3  and  _6
REMARK    4  A    between atoms: _6  and  _7
REMARK    5  A    between atoms: _7  and  _8
REMARK    6  A    between atoms: _8  and  _9
REMARK    7  A    between atoms: _18  and  _20
REMARK    8  A    between atoms: _20  and  _21
REMARK    9  A    between atoms: _20  and  _23
REMARK   10  A    between atoms: _23  and  _24
REMARK   11  A    between atoms: _27  and  _29
REMARK   12  A    between atoms: _29  and  _30
REMARK   13  A    between atoms: _29  and  _32
REMARK   14  A    between atoms: _32  and  _33
REMARK   15  A    between atoms: _36  and  _38
REMARK   16  A    between atoms: _38  and  _39
REMARK   17  A    between atoms: _38  and  _41
REMARK   18  A    between atoms: _41  and  _42
REMARK   19  A    between atoms: _45  and  _47
REMARK   20  A    between atoms: _47  and  _48
REMARK   21  A    between atoms: _47  and  _50
REMARK   22  A    between atoms: _50  and  _51
REMARK   23  A    between atoms: _54  and  _56
REMARK   24  A    between atoms: _56  and  _57
REMARK   25  A    between atoms: _59  and  _61
REMARK   26  A    between atoms: _61  and  _62
REMARK   27  A    between atoms: _65  and  _67
REMARK   28  A    between atoms: _67  and  _68
REMARK   29  A    between atoms: _67  and  _70
REMARK   30  A    between atoms: _70  and  _71
REMARK   31  A    between atoms: _74  and  _76
REMARK   32  A    between atoms: _76  and  _77
REMARK   33  A    between atoms: _76  and  _79
REMARK   34  A    between atoms: _79  and  _80
REMARK   35  A    between atoms: _83  and  _85
REMARK   36  A    between atoms: _85  and  _86
REMARK   37  A    between atoms: _85  and  _88
REMARK   38  A    between atoms: _88  and  _89
REMARK   39  A    between atoms: _92  and  _94
REMARK   40  A    between atoms: _94  and  _95
REMARK   41  A    between atoms: _94  and  _97
REMARK   42  A    between atoms: _100  and  _102
REMARK   43  A    between atoms: _102  and  _103
REMARK   44  A    between atoms: _102  and  _105
REMARK   45  A    between atoms: _105  and  _106
REMARK   46  A    between atoms: _106  and  _107
REMARK   47  A    between atoms: _109  and  _111
REMARK   48  A    between atoms: _111  and  _112
REMARK   49  A    between atoms: _111  and  _114
REMARK   50  A    between atoms: _114  and  _115
REMARK   51  A    between atoms: _118  and  _120
REMARK   52  A    between atoms: _120  and  _121
REMARK   53  A    between atoms: _123  and  _125
REMARK   54  A    between atoms: _125  and  _126
REMARK   55  A    between atoms: _128  and  _130
REMARK   56  A    between atoms: _130  and  _131
REMARK   57  A    between atoms: _130  and  _133
REMARK   58  A    between atoms: _133  and  _134
REMARK   59  A    between atoms: _137  and  _139
REMARK   60  A    between atoms: _139  and  _140
REMARK   61  A    between atoms: _142  and  _144
REMARK   62  A    between atoms: _144  and  _145
REMARK   63  A    between atoms: _147  and  _149
REMARK   64  A    between atoms: _149  and  _150
REMARK   65  A    between atoms: _149  and  _152
REMARK   66  A    between atoms: _152  and  _153
REMARK   67  A    between atoms: _159  and  _161
REMARK   68  A    between atoms: _161  and  _162
REMARK   69  A    between atoms: _161  and  _164
REMARK   70  A    between atoms: _164  and  _165
REMARK   71  A    between atoms: _168  and  _170
REMARK   72  A    between atoms: _170  and  _171
REMARK   73  A    between atoms: _170  and  _173
REMARK   74  A    between atoms: _176  and  _178
REMARK   75  A    between atoms: _178  and  _179
REMARK   76  A    between atoms: _178  and  _181
REMARK   77  A    between atoms: _181  and  _182
REMARK   78  A    between atoms: _185  and  _187
REMARK   79  A    between atoms: _187  and  _188
REMARK   80  A    between atoms: _187  and  _190
REMARK   81  A    between atoms: _190  and  _191
REMARK   82  A    between atoms: _195  and  _196
REMARK   83  A    between atoms: _201  and  _203
REMARK   84  A    between atoms: _203  and  _204
REMARK   85  A    between atoms: _203  and  _206
REMARK   86  A    between atoms: _209  and  _211
REMARK   87  A    between atoms: _211  and  _212
REMARK   88  A    between atoms: _211  and  _214
REMARK   89  A    between atoms: _214  and  _215
REMARK   90  A    between atoms: _220  and  _222
REMARK   91  A    between atoms: _222  and  _223
REMARK   92  A    between atoms: _222  and  _225
REMARK   93  A    between atoms: _225  and  _226
REMARK   94  A    between atoms: _229  and  _231
REMARK   95  A    between atoms: _231  and  _232
REMARK   96  A    between atoms: _231  and  _234
REMARK   97  A    between atoms: _234  and  _235
REMARK   98  A    between atoms: _238  and  _240
REMARK   99  A    between atoms: _240  and  _241
REMARK  100  A    between atoms: _243  and  _245
REMARK  101  A    between atoms: _245  and  _246
REMARK  102  A    between atoms: _245  and  _248
REMARK  103  A    between atoms: _248  and  _249
REMARK  104  A    between atoms: _249  and  _250
REMARK  105  A    between atoms: _250  and  _251
REMARK  106  A    between atoms: _260  and  _262
REMARK  107  A    between atoms: _262  and  _263
REMARK  108  A    between atoms: _262  and  _265
REMARK  109  A    between atoms: _265  and  _266
REMARK  110  A    between atoms: _271  and  _273
REMARK  111  A    between atoms: _273  and  _274
REMARK  112  A    between atoms: _273  and  _276
REMARK  113  A    between atoms: _276  and  _277
REMARK  114  A    between atoms: _277  and  _278
REMARK  115  A    between atoms: _278  and  _279
REMARK  116  A    between atoms: _288  and  _290
REMARK  117  A    between atoms: _290  and  _291
REMARK  118  A    between atoms: _290  and  _293
REMARK  119  A    between atoms: _293  and  _294
REMARK  120  A    between atoms: _297  and  _299
REMARK  121  A    between atoms: _299  and  _300
REMARK  122  A    between atoms: _299  and  _302
REMARK  123  A    between atoms: _302  and  _303
REMARK  124  A    between atoms: _306  and  _308
REMARK  125  A    between atoms: _308  and  _309
REMARK  126  A    between atoms: _308  and  _311
REMARK  127  A    between atoms: _311  and  _312
REMARK  128  A    between atoms: _315  and  _317
REMARK  129  A    between atoms: _317  and  _318
REMARK  130  A    between atoms: _317  and  _320
REMARK  131  A    between atoms: _320  and  _321
REMARK  132  A    between atoms: _324  and  _326
REMARK  133  A    between atoms: _326  and  _327
REMARK  134  A    between atoms: _329  and  _331
REMARK  135  A    between atoms: _331  and  _332
REMARK  136  A    between atoms: _335  and  _337
REMARK  137  A    between atoms: _337  and  _338
REMARK  138  A    between atoms: _337  and  _340
REMARK  139  A    between atoms: _340  and  _341
REMARK  140  A    between atoms: _344  and  _346
REMARK  141  A    between atoms: _346  and  _347
REMARK  142  A    between atoms: _346  and  _349
REMARK  143  A    between atoms: _349  and  _350
REMARK  144  A    between atoms: _353  and  _355
REMARK  145  A    between atoms: _355  and  _356
REMARK  146  A    between atoms: _355  and  _358
REMARK  147  A    between atoms: _358  and  _359
REMARK  148  A    between atoms: _362  and  _364
REMARK  149  A    between atoms: _364  and  _365
REMARK  150  A    between atoms: _364  and  _367
REMARK  151  A    between atoms: _370  and  _372
REMARK  152  A    between atoms: _372  and  _373
REMARK  153  A    between atoms: _372  and  _375
REMARK  154  A    between atoms: _375  and  _376
REMARK  155  A    between atoms: _376  and  _377
REMARK  156  A    between atoms: _377  and  _378
REMARK  157  A    between atoms: _378  and  _379
REMARK  158  A    between atoms: _383  and  _385
REMARK  159  A    between atoms: _385  and  _386
REMARK  160  A    between atoms: _385  and  _388
REMARK  161  A    between atoms: _388  and  _389
REMARK  162  A    between atoms: _389  and  _390
REMARK  163  A    between atoms: _392  and  _394
REMARK  164  A    between atoms: _394  and  _395
REMARK  165  A    between atoms: _394  and  _397
REMARK  166  A    between atoms: _397  and  _398
REMARK  167  A    between atoms: _401  and  _403
REMARK  168  A    between atoms: _403  and  _404
REMARK  169  A    between atoms: _406  and  _408
REMARK  170  A    between atoms: _408  and  _409
REMARK  171  A    between atoms: _411  and  _413
REMARK  172  A    between atoms: _413  and  _414
REMARK  173  A    between atoms: _413  and  _416
REMARK  174  A    between atoms: _416  and  _417
REMARK  175  A    between atoms: _420  and  _422
REMARK  176  A    between atoms: _422  and  _423
REMARK  177  A    between atoms: _425  and  _427
REMARK  178  A    between atoms: _427  and  _428
REMARK  179  A    between atoms: _430  and  _432
REMARK  180  A    between atoms: _432  and  _433
REMARK  181  A    between atoms: _432  and  _435
REMARK  182  A    between atoms: _435  and  _436
REMARK  183  A    between atoms: _442  and  _444
REMARK  184  A    between atoms: _444  and  _445
REMARK  185  A    between atoms: _444  and  _447
REMARK  186  A    between atoms: _447  and  _448
REMARK  187  A    between atoms: _451  and  _453
REMARK  188  A    between atoms: _453  and  _454
REMARK  189  A    between atoms: _453  and  _456
REMARK  190  A    between atoms: _456  and  _457
REMARK  191  A    between atoms: _460  and  _462
REMARK  192  A    between atoms: _462  and  _463
REMARK  193  A    between atoms: _462  and  _465
REMARK  194  A    between atoms: _465  and  _466
REMARK  195  A    between atoms: _470  and  _471
REMARK  196  A    between atoms: _476  and  _478
REMARK  197  A    between atoms: _478  and  _479
REMARK  198  A    between atoms: _478  and  _481
REMARK  199  A    between atoms: _484  and  _486
REMARK  200  A    between atoms: _486  and  _487
REMARK  201  A    between atoms: _486  and  _489
REMARK  202  A    between atoms: _489  and  _490
REMARK  203  A    between atoms: _495  and  _497
REMARK  204  A    between atoms: _497  and  _498
REMARK  205  A    between atoms: _497  and  _500
REMARK  206  A    between atoms: _500  and  _501
REMARK  207  A    between atoms: _504  and  _506
REMARK  208  A    between atoms: _506  and  _507
REMARK  209  A    between atoms: _506  and  _509
REMARK  210  A    between atoms: _509  and  _510
REMARK  211  A    between atoms: _513  and  _515
REMARK  212  A    between atoms: _515  and  _516
REMARK  213  A    between atoms: _518  and  _520
REMARK  214  A    between atoms: _520  and  _521
REMARK  215  A    between atoms: _520  and  _523
REMARK  216  A    between atoms: _523  and  _524
REMARK  217  A    between atoms: _524  and  _525
REMARK  218  A    between atoms: _525  and  _526
REMARK  219  A    between atoms: _535  and  _537
REMARK  220  A    between atoms: _537  and  _538
REMARK  221  A    between atoms: _537  and  _540
REMARK  222  A    between atoms: _540  and  _541
REMARK                            x       y       z     vdW  Elec       q    Type
REMARK                         _______ _______ _______ _____ _____    ______ ____
ROOT
ATOM      1  O   HOH     1      31.281  23.557  12.312  0.00  0.00    +0.000 OA
ENDROOT
TORSDOF 0
REMARK  Name = ../refined-set-2016/3mxd/3mxd_pocket.pdb
REMARK  222 active torsions:
REMARK  status: ('A' for Active; 'I' for Inactive)
REMARK    1  A    between atoms: _1  and  _3
REMARK    2  A    between atoms: _3  and  _4
REMARK    3  A    between atoms: _3  and  _6
REMARK    4  A    between atoms: _6  and  _7
REMARK    5  A    between atoms: _7  and  _8
REMARK    6  A    between atoms: _8  and  _9
REMARK    7  A    between atoms: _18  and  _20
REMARK    8  A    between atoms: _20  and  _21
REMARK    9  A    between atoms: _20  and  _23
REMARK   10  A    between atoms: _23  and  _24
REMARK   11  A    between atoms: _27  and  _29
REMARK   12  A    between atoms: _29  and  _30
REMARK   13  A    between atoms: _29  and  _32
REMARK   14  A    between atoms: _32  and  _33
REMARK   15  A    between atoms: _36  and  _38
REMARK   16  A    between atoms: _38  and  _39
REMARK   17  A    between atoms: _38  and  _41
REMARK   18  A    between atoms: _41  and  _42
REMARK   19  A    between atoms: _45  and  _47
REMARK   20  A    between atoms: _47  and  _48
REMARK   21  A    between atoms: _47  and  _50
REMARK   22  A    between atoms: _50  and  _51
REMARK   23  A    between atoms: _54  and  _56
REMARK   24  A    between atoms: _56  and  _57
REMARK   25  A    between atoms: _59  and  _61
REMARK   26  A    between atoms: _61  and  _62
REMARK   27  A    between atoms: _65  and  _67
REMARK   28  A    between atoms: _67  and  _68
REMARK   29  A    between atoms: _67  and  _70
REMARK   30  A    between atoms: _70  and  _71
REMARK   31  A    between atoms: _74  and  _76
REMARK   32  A    between atoms: _76  and  _77
REMARK   33  A    between atoms: _76  and  _79
REMARK   34  A    between atoms: _79  and  _80
REMARK   35  A    between atoms: _83  and  _85
REMARK   36  A    between atoms: _85  and  _86
REMARK   37  A    between atoms: _85  and  _88
REMARK   38  A    between atoms: _88  and  _89
REMARK   39  A    between atoms: _92  and  _94
REMARK   40  A    between atoms: _94  and  _95
REMARK   41  A    between atoms: _94  and  _97
REMARK   42  A    between atoms: _100  and  _102
REMARK   43  A    between atoms: _102  and  _103
REMARK   44  A    between atoms: _102  and  _105
REMARK   45  A    between atoms: _105  and  _106
REMARK   46  A    between atoms: _106  and  _107
REMARK   47  A    between atoms: _109  and  _111
REMARK   48  A    between atoms: _111  and  _112
REMARK   49  A    between atoms: _111  and  _114
REMARK   50  A    between atoms: _114  and  _115
REMARK   51  A    between atoms: _118  and  _120
REMARK   52  A    between atoms: _120  and  _121
REMARK   53  A    between atoms: _123  and  _125
REMARK   54  A    between atoms: _125  and  _126
REMARK   55  A    between atoms: _128  and  _130
REMARK   56  A    between atoms: _130  and  _131
REMARK   57  A    between atoms: _130  and  _133
REMARK   58  A    between atoms: _133  and  _134
REMARK   59  A    between atoms: _137  and  _139
REMARK   60  A    between atoms: _139  and  _140
REMARK   61  A    between atoms: _142  and  _144
REMARK   62  A    between atoms: _144  and  _145
REMARK   63  A    between atoms: _147  and  _149
REMARK   64  A    between atoms: _149  and  _150
REMARK   65  A    between atoms: _149  and  _152
REMARK   66  A    between atoms: _152  and  _153
REMARK   67  A    between atoms: _159  and  _161
REMARK   68  A    between atoms: _161  and  _162
REMARK   69  A    between atoms: _161  and  _164
REMARK   70  A    between atoms: _164  and  _165
REMARK   71  A    between atoms: _168  and  _170
REMARK   72  A    between atoms: _170  and  _171
REMARK   73  A    between atoms: _170  and  _173
REMARK   74  A    between atoms: _176  and  _178
REMARK   75  A    between atoms: _178  and  _179
REMARK   76  A    between atoms: _178  and  _181
REMARK   77  A    between atoms: _181  and  _182
REMARK   78  A    between atoms: _185  and  _187
REMARK   79  A    between atoms: _187  and  _188
REMARK   80  A    between atoms: _187  and  _190
REMARK   81  A    between atoms: _190  and  _191
REMARK   82  A    between atoms: _195  and  _196
REMARK   83  A    between atoms: _201  and  _203
REMARK   84  A    between atoms: _203  and  _204
REMARK   85  A    between atoms: _203  and  _206
REMARK   86  A    between atoms: _209  and  _211
REMARK   87  A    between atoms: _211  and  _212
REMARK   88  A    between atoms: _211  and  _214
REMARK   89  A    between atoms: _214  and  _215
REMARK   90  A    between atoms: _220  and  _222
REMARK   91  A    between atoms: _222  and  _223
REMARK   92  A    between atoms: _222  and  _225
REMARK   93  A    between atoms: _225  and  _226
REMARK   94  A    between atoms: _229  and  _231
REMARK   95  A    between atoms: _231  and  _232
REMARK   96  A    between atoms: _231  and  _234
REMARK   97  A    between atoms: _234  and  _235
REMARK   98  A    between atoms: _238  and  _240
REMARK   99  A    between atoms: _240  and  _241
REMARK  100  A    between atoms: _243  and  _245
REMARK  101  A    between atoms: _245  and  _246
REMARK  102  A    between atoms: _245  and  _248
REMARK  103  A    between atoms: _248  and  _249
REMARK  104  A    between atoms: _249  and  _250
REMARK  105  A    between atoms: _250  and  _251
REMARK  106  A    between atoms: _260  and  _262
REMARK  107  A    between atoms: _262  and  _263
REMARK  108  A    between atoms: _262  and  _265
REMARK  109  A    between atoms: _265  and  _266
REMARK  110  A    between atoms: _271  and  _273
REMARK  111  A    between atoms: _273  and  _274
REMARK  112  A    between atoms: _273  and  _276
REMARK  113  A    between atoms: _276  and  _277
REMARK  114  A    between atoms: _277  and  _278
REMARK  115  A    between atoms: _278  and  _279
REMARK  116  A    between atoms: _288  and  _290
REMARK  117  A    between atoms: _290  and  _291
REMARK  118  A    between atoms: _290  and  _293
REMARK  119  A    between atoms: _293  and  _294
REMARK  120  A    between atoms: _297  and  _299
REMARK  121  A    between atoms: _299  and  _300
REMARK  122  A    between atoms: _299  and  _302
REMARK  123  A    between atoms: _302  and  _303
REMARK  124  A    between atoms: _306  and  _308
REMARK  125  A    between atoms: _308  and  _309
REMARK  126  A    between atoms: _308  and  _311
REMARK  127  A    between atoms: _311  and  _312
REMARK  128  A    between atoms: _315  and  _317
REMARK  129  A    between atoms: _317  and  _318
REMARK  130  A    between atoms: _317  and  _320
REMARK  131  A    between atoms: _320  and  _321
REMARK  132  A    between atoms: _324  and  _326
REMARK  133  A    between atoms: _326  and  _327
REMARK  134  A    between atoms: _329  and  _331
REMARK  135  A    between atoms: _331  and  _332
REMARK  136  A    between atoms: _335  and  _337
REMARK  137  A    between atoms: _337  and  _338
REMARK  138  A    between atoms: _337  and  _340
REMARK  139  A    between atoms: _340  and  _341
REMARK  140  A    between atoms: _344  and  _346
REMARK  141  A    between atoms: _346  and  _347
REMARK  142  A    between atoms: _346  and  _349
REMARK  143  A    between atoms: _349  and  _350
REMARK  144  A    between atoms: _353  and  _355
REMARK  145  A    between atoms: _355  and  _356
REMARK  146  A    between atoms: _355  and  _358
REMARK  147  A    between atoms: _358  and  _359
REMARK  148  A    between atoms: _362  and  _364
REMARK  149  A    between atoms: _364  and  _365
REMARK  150  A    between atoms: _364  and  _367
REMARK  151  A    between atoms: _370  and  _372
REMARK  152  A    between atoms: _372  and  _373
REMARK  153  A    between atoms: _372  and  _375
REMARK  154  A    between atoms: _375  and  _376
REMARK  155  A    between atoms: _376  and  _377
REMARK  156  A    between atoms: _377  and  _378
REMARK  157  A    between atoms: _378  and  _379
REMARK  158  A    between atoms: _383  and  _385
REMARK  159  A    between atoms: _385  and  _386
REMARK  160  A    between atoms: _385  and  _388
REMARK  161  A    between atoms: _388  and  _389
REMARK  162  A    between atoms: _389  and  _390
REMARK  163  A    between atoms: _392  and  _394
REMARK  164  A    between atoms: _394  and  _395
REMARK  165  A    between atoms: _394  and  _397
REMARK  166  A    between atoms: _397  and  _398
REMARK  167  A    between atoms: _401  and  _403
REMARK  168  A    between atoms: _403  and  _404
REMARK  169  A    between atoms: _406  and  _408
REMARK  170  A    between atoms: _408  and  _409
REMARK  171  A    between atoms: _411  and  _413
REMARK  172  A    between atoms: _413  and  _414
REMARK  173  A    between atoms: _413  and  _416
REMARK  174  A    between atoms: _416  and  _417
REMARK  175  A    between atoms: _420  and  _422
REMARK  176  A    between atoms: _422  and  _423
REMARK  177  A    between atoms: _425  and  _427
REMARK  178  A    between atoms: _427  and  _428
REMARK  179  A    between atoms: _430  and  _432
REMARK  180  A    between atoms: _432  and  _433
REMARK  181  A    between atoms: _432  and  _435
REMARK  182  A    between atoms: _435  and  _436
REMARK  183  A    between atoms: _442  and  _444
REMARK  184  A    between atoms: _444  and  _445
REMARK  185  A    between atoms: _444  and  _447
REMARK  186  A    between atoms: _447  and  _448
REMARK  187  A    between atoms: _451  and  _453
REMARK  188  A    between atoms: _453  and  _454
REMARK  189  A    between atoms: _453  and  _456
REMARK  190  A    between atoms: _456  and  _457
REMARK  191  A    between atoms: _460  and  _462
REMARK  192  A    between atoms: _462  and  _463
REMARK  193  A    between atoms: _462  and  _465
REMARK  194  A    between atoms: _465  and  _466
REMARK  195  A    between atoms: _470  and  _471
REMARK  196  A    between atoms: _476  and  _478
REMARK  197  A    between atoms: _478  and  _479
REMARK  198  A    between atoms: _478  and  _481
REMARK  199  A    between atoms: _484  and  _486
REMARK  200  A    between atoms: _486  and  _487
REMARK  201  A    between atoms: _486  and  _489
REMARK  202  A    between atoms: _489  and  _490
REMARK  203  A    between atoms: _495  and  _497
REMARK  204  A    between atoms: _497  and  _498
REMARK  205  A    between atoms: _497  and  _500
REMARK  206  A    between atoms: _500  and  _501
REMARK  207  A    between atoms: _504  and  _506
REMARK  208  A    between atoms: _506  and  _507
REMARK  209  A    between atoms: _506  and  _509
REMARK  210  A    between atoms: _509  and  _510
REMARK  211  A    between atoms: _513  and  _515
REMARK  212  A    between atoms: _515  and  _516
REMARK  213  A    between atoms: _518  and  _520
REMARK  214  A    between atoms: _520  and  _521
REMARK  215  A    between atoms: _520  and  _523
REMARK  216  A    between atoms: _523  and  _524
REMARK  217  A    between atoms: _524  and  _525
REMARK  218  A    between atoms: _525  and  _526
REMARK  219  A    between atoms: _535  and  _537
REMARK  220  A    between atoms: _537  and  _538
REMARK  221  A    between atoms: _537  and  _540
REMARK  222  A    between atoms: _540  and  _541
REMARK                            x       y       z     vdW  Elec       q    Type
REMARK                         _______ _______ _______ _____ _____    ______ ____
ROOT
ATOM      1  O   HOH     1      26.890  19.430   9.958  0.00  0.00    +0.000 OA
ENDROOT
TORSDOF 0
REMARK  Name = ../refined-set-2016/3mxd/3mxd_pocket.pdb
REMARK  222 active torsions:
REMARK  status: ('A' for Active; 'I' for Inactive)
REMARK    1  A    between atoms: _1  and  _3
REMARK    2  A    between atoms: _3  and  _4
REMARK    3  A    between atoms: _3  and  _6
REMARK    4  A    between atoms: _6  and  _7
REMARK    5  A    between atoms: _7  and  _8
REMARK    6  A    between atoms: _8  and  _9
REMARK    7  A    between atoms: _18  and  _20
REMARK    8  A    between atoms: _20  and  _21
REMARK    9  A    between atoms: _20  and  _23
REMARK   10  A    between atoms: _23  and  _24
REMARK   11  A    between atoms: _27  and  _29
REMARK   12  A    between atoms: _29  and  _30
REMARK   13  A    between atoms: _29  and  _32
REMARK   14  A    between atoms: _32  and  _33
REMARK   15  A    between atoms: _36  and  _38
REMARK   16  A    between atoms: _38  and  _39
REMARK   17  A    between atoms: _38  and  _41
REMARK   18  A    between atoms: _41  and  _42
REMARK   19  A    between atoms: _45  and  _47
REMARK   20  A    between atoms: _47  and  _48
REMARK   21  A    between atoms: _47  and  _50
REMARK   22  A    between atoms: _50  and  _51
REMARK   23  A    between atoms: _54  and  _56
REMARK   24  A    between atoms: _56  and  _57
REMARK   25  A    between atoms: _59  and  _61
REMARK   26  A    between atoms: _61  and  _62
REMARK   27  A    between atoms: _65  and  _67
REMARK   28  A    between atoms: _67  and  _68
REMARK   29  A    between atoms: _67  and  _70
REMARK   30  A    between atoms: _70  and  _71
REMARK   31  A    between atoms: _74  and  _76
REMARK   32  A    between atoms: _76  and  _77
REMARK   33  A    between atoms: _76  and  _79
REMARK   34  A    between atoms: _79  and  _80
REMARK   35  A    between atoms: _83  and  _85
REMARK   36  A    between atoms: _85  and  _86
REMARK   37  A    between atoms: _85  and  _88
REMARK   38  A    between atoms: _88  and  _89
REMARK   39  A    between atoms: _92  and  _94
REMARK   40  A    between atoms: _94  and  _95
REMARK   41  A    between atoms: _94  and  _97
REMARK   42  A    between atoms: _100  and  _102
REMARK   43  A    between atoms: _102  and  _103
REMARK   44  A    between atoms: _102  and  _105
REMARK   45  A    between atoms: _105  and  _106
REMARK   46  A    between atoms: _106  and  _107
REMARK   47  A    between atoms: _109  and  _111
REMARK   48  A    between atoms: _111  and  _112
REMARK   49  A    between atoms: _111  and  _114
REMARK   50  A    between atoms: _114  and  _115
REMARK   51  A    between atoms: _118  and  _120
REMARK   52  A    between atoms: _120  and  _121
REMARK   53  A    between atoms: _123  and  _125
REMARK   54  A    between atoms: _125  and  _126
REMARK   55  A    between atoms: _128  and  _130
REMARK   56  A    between atoms: _130  and  _131
REMARK   57  A    between atoms: _130  and  _133
REMARK   58  A    between atoms: _133  and  _134
REMARK   59  A    between atoms: _137  and  _139
REMARK   60  A    between atoms: _139  and  _140
REMARK   61  A    between atoms: _142  and  _144
REMARK   62  A    between atoms: _144  and  _145
REMARK   63  A    between atoms: _147  and  _149
REMARK   64  A    between atoms: _149  and  _150
REMARK   65  A    between atoms: _149  and  _152
REMARK   66  A    between atoms: _152  and  _153
REMARK   67  A    between atoms: _159  and  _161
REMARK   68  A    between atoms: _161  and  _162
REMARK   69  A    between atoms: _161  and  _164
REMARK   70  A    between atoms: _164  and  _165
REMARK   71  A    between atoms: _168  and  _170
REMARK   72  A    between atoms: _170  and  _171
REMARK   73  A    between atoms: _170  and  _173
REMARK   74  A    between atoms: _176  and  _178
REMARK   75  A    between atoms: _178  and  _179
REMARK   76  A    between atoms: _178  and  _181
REMARK   77  A    between atoms: _181  and  _182
REMARK   78  A    between atoms: _185  and  _187
REMARK   79  A    between atoms: _187  and  _188
REMARK   80  A    between atoms: _187  and  _190
REMARK   81  A    between atoms: _190  and  _191
REMARK   82  A    between atoms: _195  and  _196
REMARK   83  A    between atoms: _201  and  _203
REMARK   84  A    between atoms: _203  and  _204
REMARK   85  A    between atoms: _203  and  _206
REMARK   86  A    between atoms: _209  and  _211
REMARK   87  A    between atoms: _211  and  _212
REMARK   88  A    between atoms: _211  and  _214
REMARK   89  A    between atoms: _214  and  _215
REMARK   90  A    between atoms: _220  and  _222
REMARK   91  A    between atoms: _222  and  _223
REMARK   92  A    between atoms: _222  and  _225
REMARK   93  A    between atoms: _225  and  _226
REMARK   94  A    between atoms: _229  and  _231
REMARK   95  A    between atoms: _231  and  _232
REMARK   96  A    between atoms: _231  and  _234
REMARK   97  A    between atoms: _234  and  _235
REMARK   98  A    between atoms: _238  and  _240
REMARK   99  A    between atoms: _240  and  _241
REMARK  100  A    between atoms: _243  and  _245
REMARK  101  A    between atoms: _245  and  _246
REMARK  102  A    between atoms: _245  and  _248
REMARK  103  A    between atoms: _248  and  _249
REMARK  104  A    between atoms: _249  and  _250
REMARK  105  A    between atoms: _250  and  _251
REMARK  106  A    between atoms: _260  and  _262
REMARK  107  A    between atoms: _262  and  _263
REMARK  108  A    between atoms: _262  and  _265
REMARK  109  A    between atoms: _265  and  _266
REMARK  110  A    between atoms: _271  and  _273
REMARK  111  A    between atoms: _273  and  _274
REMARK  112  A    between atoms: _273  and  _276
REMARK  113  A    between atoms: _276  and  _277
REMARK  114  A    between atoms: _277  and  _278
REMARK  115  A    between atoms: _278  and  _279
REMARK  116  A    between atoms: _288  and  _290
REMARK  117  A    between atoms: _290  and  _291
REMARK  118  A    between atoms: _290  and  _293
REMARK  119  A    between atoms: _293  and  _294
REMARK  120  A    between atoms: _297  and  _299
REMARK  121  A    between atoms: _299  and  _300
REMARK  122  A    between atoms: _299  and  _302
REMARK  123  A    between atoms: _302  and  _303
REMARK  124  A    between atoms: _306  and  _308
REMARK  125  A    between atoms: _308  and  _309
REMARK  126  A    between atoms: _308  and  _311
REMARK  127  A    between atoms: _311  and  _312
REMARK  128  A    between atoms: _315  and  _317
REMARK  129  A    between atoms: _317  and  _318
REMARK  130  A    between atoms: _317  and  _320
REMARK  131  A    between atoms: _320  and  _321
REMARK  132  A    between atoms: _324  and  _326
REMARK  133  A    between atoms: _326  and  _327
REMARK  134  A    between atoms: _329  and  _331
REMARK  135  A    between atoms: _331  and  _332
REMARK  136  A    between atoms: _335  and  _337
REMARK  137  A    between atoms: _337  and  _338
REMARK  138  A    between atoms: _337  and  _340
REMARK  139  A    between atoms: _340  and  _341
REMARK  140  A    between atoms: _344  and  _346
REMARK  141  A    between atoms: _346  and  _347
REMARK  142  A    between atoms: _346  and  _349
REMARK  143  A    between atoms: _349  and  _350
REMARK  144  A    between atoms: _353  and  _355
REMARK  145  A    between atoms: _355  and  _356
REMARK  146  A    between atoms: _355  and  _358
REMARK  147  A    between atoms: _358  and  _359
REMARK  148  A    between atoms: _362  and  _364
REMARK  149  A    between atoms: _364  and  _365
REMARK  150  A    between atoms: _364  and  _367
REMARK  151  A    between atoms: _370  and  _372
REMARK  152  A    between atoms: _372  and  _373
REMARK  153  A    between atoms: _372  and  _375
REMARK  154  A    between atoms: _375  and  _376
REMARK  155  A    between atoms: _376  and  _377
REMARK  156  A    between atoms: _377  and  _378
REMARK  157  A    between atoms: _378  and  _379
REMARK  158  A    between atoms: _383  and  _385
REMARK  159  A    between atoms: _385  and  _386
REMARK  160  A    between atoms: _385  and  _388
REMARK  161  A    between atoms: _388  and  _389
REMARK  162  A    between atoms: _389  and  _390
REMARK  163  A    between atoms: _392  and  _394
REMARK  164  A    between atoms: _394  and  _395
REMARK  165  A    between atoms: _394  and  _397
REMARK  166  A    between atoms: _397  and  _398
REMARK  167  A    between atoms: _401  and  _403
REMARK  168  A    between atoms: _403  and  _404
REMARK  169  A    between atoms: _406  and  _408
REMARK  170  A    between atoms: _408  and  _409
REMARK  171  A    between atoms: _411  and  _413
REMARK  172  A    between atoms: _413  and  _414
REMARK  173  A    between atoms: _413  and  _416
REMARK  174  A    between atoms: _416  and  _417
REMARK  175  A    between atoms: _420  and  _422
REMARK  176  A    between atoms: _422  and  _423
REMARK  177  A    between atoms: _425  and  _427
REMARK  178  A    between atoms: _427  and  _428
REMARK  179  A    between atoms: _430  and  _432
REMARK  180  A    between atoms: _432  and  _433
REMARK  181  A    between atoms: _432  and  _435
REMARK  182  A    between atoms: _435  and  _436
REMARK  183  A    between atoms: _442  and  _444
REMARK  184  A    between atoms: _444  and  _445
REMARK  185  A    between atoms: _444  and  _447
REMARK  186  A    between atoms: _447  and  _448
REMARK  187  A    between atoms: _451  and  _453
REMARK  188  A    between atoms: _453  and  _454
REMARK  189  A    between atoms: _453  and  _456
REMARK  190  A    between atoms: _456  and  _457
REMARK  191  A    between atoms: _460  and  _462
REMARK  192  A    between atoms: _462  and  _463
REMARK  193  A    between atoms: _462  and  _465
REMARK  194  A    between atoms: _465  and  _466
REMARK  195  A    between atoms: _470  and  _471
REMARK  196  A    between atoms: _476  and  _478
REMARK  197  A    between atoms: _478  and  _479
REMARK  198  A    between atoms: _478  and  _481
REMARK  199  A    between atoms: _484  and  _486
REMARK  200  A    between atoms: _486  and  _487
REMARK  201  A    between atoms: _486  and  _489
REMARK  202  A    between atoms: _489  and  _490
REMARK  203  A    between atoms: _495  and  _497
REMARK  204  A    between atoms: _497  and  _498
REMARK  205  A    between atoms: _497  and  _500
REMARK  206  A    between atoms: _500  and  _501
REMARK  207  A    between atoms: _504  and  _506
REMARK  208  A    between atoms: _506  and  _507
REMARK  209  A    between atoms: _506  and  _509
REMARK  210  A    between atoms: _509  and  _510
REMARK  211  A    between atoms: _513  and  _515
REMARK  212  A    between atoms: _515  and  _516
REMARK  213  A    between atoms: _518  and  _520
REMARK  214  A    between atoms: _520  and  _521
REMARK  215  A    between atoms: _520  and  _523
REMARK  216  A    between atoms: _523  and  _524
REMARK  217  A    between atoms: _524  and  _525
REMARK  218  A    between atoms: _525  and  _526
REMARK  219  A    between atoms: _535  and  _537
REMARK  220  A    between atoms: _537  and  _538
REMARK  221  A    between atoms: _537  and  _540
REMARK  222  A    between atoms: _540  and  _541
REMARK                            x       y       z     vdW  Elec       q    Type
REMARK                         _______ _______ _______ _____ _____    ______ ____
ROOT
ATOM      1  O   HOH     1      20.176  32.075  11.763  0.00  0.00    +0.000 OA
ENDROOT
TORSDOF 0
REMARK  Name = ../refined-set-2016/3mxd/3mxd_pocket.pdb
REMARK  222 active torsions:
REMARK  status: ('A' for Active; 'I' for Inactive)
REMARK    1  A    between atoms: _1  and  _3
REMARK    2  A    between atoms: _3  and  _4
REMARK    3  A    between atoms: _3  and  _6
REMARK    4  A    between atoms: _6  and  _7
REMARK    5  A    between atoms: _7  and  _8
REMARK    6  A    between atoms: _8  and  _9
REMARK    7  A    between atoms: _18  and  _20
REMARK    8  A    between atoms: _20  and  _21
REMARK    9  A    between atoms: _20  and  _23
REMARK   10  A    between atoms: _23  and  _24
REMARK   11  A    between atoms: _27  and  _29
REMARK   12  A    between atoms: _29  and  _30
REMARK   13  A    between atoms: _29  and  _32
REMARK   14  A    between atoms: _32  and  _33
REMARK   15  A    between atoms: _36  and  _38
REMARK   16  A    between atoms: _38  and  _39
REMARK   17  A    between atoms: _38  and  _41
REMARK   18  A    between atoms: _41  and  _42
REMARK   19  A    between atoms: _45  and  _47
REMARK   20  A    between atoms: _47  and  _48
REMARK   21  A    between atoms: _47  and  _50
REMARK   22  A    between atoms: _50  and  _51
REMARK   23  A    between atoms: _54  and  _56
REMARK   24  A    between atoms: _56  and  _57
REMARK   25  A    between atoms: _59  and  _61
REMARK   26  A    between atoms: _61  and  _62
REMARK   27  A    between atoms: _65  and  _67
REMARK   28  A    between atoms: _67  and  _68
REMARK   29  A    between atoms: _67  and  _70
REMARK   30  A    between atoms: _70  and  _71
REMARK   31  A    between atoms: _74  and  _76
REMARK   32  A    between atoms: _76  and  _77
REMARK   33  A    between atoms: _76  and  _79
REMARK   34  A    between atoms: _79  and  _80
REMARK   35  A    between atoms: _83  and  _85
REMARK   36  A    between atoms: _85  and  _86
REMARK   37  A    between atoms: _85  and  _88
REMARK   38  A    between atoms: _88  and  _89
REMARK   39  A    between atoms: _92  and  _94
REMARK   40  A    between atoms: _94  and  _95
REMARK   41  A    between atoms: _94  and  _97
REMARK   42  A    between atoms: _100  and  _102
REMARK   43  A    between atoms: _102  and  _103
REMARK   44  A    between atoms: _102  and  _105
REMARK   45  A    between atoms: _105  and  _106
REMARK   46  A    between atoms: _106  and  _107
REMARK   47  A    between atoms: _109  and  _111
REMARK   48  A    between atoms: _111  and  _112
REMARK   49  A    between atoms: _111  and  _114
REMARK   50  A    between atoms: _114  and  _115
REMARK   51  A    between atoms: _118  and  _120
REMARK   52  A    between atoms: _120  and  _121
REMARK   53  A    between atoms: _123  and  _125
REMARK   54  A    between atoms: _125  and  _126
REMARK   55  A    between atoms: _128  and  _130
REMARK   56  A    between atoms: _130  and  _131
REMARK   57  A    between atoms: _130  and  _133
REMARK   58  A    between atoms: _133  and  _134
REMARK   59  A    between atoms: _137  and  _139
REMARK   60  A    between atoms: _139  and  _140
REMARK   61  A    between atoms: _142  and  _144
REMARK   62  A    between atoms: _144  and  _145
REMARK   63  A    between atoms: _147  and  _149
REMARK   64  A    between atoms: _149  and  _150
REMARK   65  A    between atoms: _149  and  _152
REMARK   66  A    between atoms: _152  and  _153
REMARK   67  A    between atoms: _159  and  _161
REMARK   68  A    between atoms: _161  and  _162
REMARK   69  A    between atoms: _161  and  _164
REMARK   70  A    between atoms: _164  and  _165
REMARK   71  A    between atoms: _168  and  _170
REMARK   72  A    between atoms: _170  and  _171
REMARK   73  A    between atoms: _170  and  _173
REMARK   74  A    between atoms: _176  and  _178
REMARK   75  A    between atoms: _178  and  _179
REMARK   76  A    between atoms: _178  and  _181
REMARK   77  A    between atoms: _181  and  _182
REMARK   78  A    between atoms: _185  and  _187
REMARK   79  A    between atoms: _187  and  _188
REMARK   80  A    between atoms: _187  and  _190
REMARK   81  A    between atoms: _190  and  _191
REMARK   82  A    between atoms: _195  and  _196
REMARK   83  A    between atoms: _201  and  _203
REMARK   84  A    between atoms: _203  and  _204
REMARK   85  A    between atoms: _203  and  _206
REMARK   86  A    between atoms: _209  and  _211
REMARK   87  A    between atoms: _211  and  _212
REMARK   88  A    between atoms: _211  and  _214
REMARK   89  A    between atoms: _214  and  _215
REMARK   90  A    between atoms: _220  and  _222
REMARK   91  A    between atoms: _222  and  _223
REMARK   92  A    between atoms: _222  and  _225
REMARK   93  A    between atoms: _225  and  _226
REMARK   94  A    between atoms: _229  and  _231
REMARK   95  A    between atoms: _231  and  _232
REMARK   96  A    between atoms: _231  and  _234
REMARK   97  A    between atoms: _234  and  _235
REMARK   98  A    between atoms: _238  and  _240
REMARK   99  A    between atoms: _240  and  _241
REMARK  100  A    between atoms: _243  and  _245
REMARK  101  A    between atoms: _245  and  _246
REMARK  102  A    between atoms: _245  and  _248
REMARK  103  A    between atoms: _248  and  _249
REMARK  104  A    between atoms: _249  and  _250
REMARK  105  A    between atoms: _250  and  _251
REMARK  106  A    between atoms: _260  and  _262
REMARK  107  A    between atoms: _262  and  _263
REMARK  108  A    between atoms: _262  and  _265
REMARK  109  A    between atoms: _265  and  _266
REMARK  110  A    between atoms: _271  and  _273
REMARK  111  A    between atoms: _273  and  _274
REMARK  112  A    between atoms: _273  and  _276
REMARK  113  A    between atoms: _276  and  _277
REMARK  114  A    between atoms: _277  and  _278
REMARK  115  A    between atoms: _278  and  _279
REMARK  116  A    between atoms: _288  and  _290
REMARK  117  A    between atoms: _290  and  _291
REMARK  118  A    between atoms: _290  and  _293
REMARK  119  A    between atoms: _293  and  _294
REMARK  120  A    between atoms: _297  and  _299
REMARK  121  A    between atoms: _299  and  _300
REMARK  122  A    between atoms: _299  and  _302
REMARK  123  A    between atoms: _302  and  _303
REMARK  124  A    between atoms: _306  and  _308
REMARK  125  A    between atoms: _308  and  _309
REMARK  126  A    between atoms: _308  and  _311
REMARK  127  A    between atoms: _311  and  _312
REMARK  128  A    between atoms: _315  and  _317
REMARK  129  A    between atoms: _317  and  _318
REMARK  130  A    between atoms: _317  and  _320
REMARK  131  A    between atoms: _320  and  _321
REMARK  132  A    between atoms: _324  and  _326
REMARK  133  A    between atoms: _326  and  _327
REMARK  134  A    between atoms: _329  and  _331
REMARK  135  A    between atoms: _331  and  _332
REMARK  136  A    between atoms: _335  and  _337
REMARK  137  A    between atoms: _337  and  _338
REMARK  138  A    between atoms: _337  and  _340
REMARK  139  A    between atoms: _340  and  _341
REMARK  140  A    between atoms: _344  and  _346
REMARK  141  A    between atoms: _346  and  _347
REMARK  142  A    between atoms: _346  and  _349
REMARK  143  A    between atoms: _349  and  _350
REMARK  144  A    between atoms: _353  and  _355
REMARK  145  A    between atoms: _355  and  _356
REMARK  146  A    between atoms: _355  and  _358
REMARK  147  A    between atoms: _358  and  _359
REMARK  148  A    between atoms: _362  and  _364
REMARK  149  A    between atoms: _364  and  _365
REMARK  150  A    between atoms: _364  and  _367
REMARK  151  A    between atoms: _370  and  _372
REMARK  152  A    between atoms: _372  and  _373
REMARK  153  A    between atoms: _372  and  _375
REMARK  154  A    between atoms: _375  and  _376
REMARK  155  A    between atoms: _376  and  _377
REMARK  156  A    between atoms: _377  and  _378
REMARK  157  A    between atoms: _378  and  _379
REMARK  158  A    between atoms: _383  and  _385
REMARK  159  A    between atoms: _385  and  _386
REMARK  160  A    between atoms: _385  and  _388
REMARK  161  A    between atoms: _388  and  _389
REMARK  162  A    between atoms: _389  and  _390
REMARK  163  A    between atoms: _392  and  _394
REMARK  164  A    between atoms: _394  and  _395
REMARK  165  A    between atoms: _394  and  _397
REMARK  166  A    between atoms: _397  and  _398
REMARK  167  A    between atoms: _401  and  _403
REMARK  168  A    between atoms: _403  and  _404
REMARK  169  A    between atoms: _406  and  _408
REMARK  170  A    between atoms: _408  and  _409
REMARK  171  A    between atoms: _411  and  _413
REMARK  172  A    between atoms: _413  and  _414
REMARK  173  A    between atoms: _413  and  _416
REMARK  174  A    between atoms: _416  and  _417
REMARK  175  A    between atoms: _420  and  _422
REMARK  176  A    between atoms: _422  and  _423
REMARK  177  A    between atoms: _425  and  _427
REMARK  178  A    between atoms: _427  and  _428
REMARK  179  A    between atoms: _430  and  _432
REMARK  180  A    between atoms: _432  and  _433
REMARK  181  A    between atoms: _432  and  _435
REMARK  182  A    between atoms: _435  and  _436
REMARK  183  A    between atoms: _442  and  _444
REMARK  184  A    between atoms: _444  and  _445
REMARK  185  A    between atoms: _444  and  _447
REMARK  186  A    between atoms: _447  and  _448
REMARK  187  A    between atoms: _451  and  _453
REMARK  188  A    between atoms: _453  and  _454
REMARK  189  A    between atoms: _453  and  _456
REMARK  190  A    between atoms: _456  and  _457
REMARK  191  A    between atoms: _460  and  _462
REMARK  192  A    between atoms: _462  and  _463
REMARK  193  A    between atoms: _462  and  _465
REMARK  194  A    between atoms: _465  and  _466
REMARK  195  A    between atoms: _470  and  _471
REMARK  196  A    between atoms: _476  and  _478
REMARK  197  A    between atoms: _478  and  _479
REMARK  198  A    between atoms: _478  and  _481
REMARK  199  A    between atoms: _484  and  _486
REMARK  200  A    between atoms: _486  and  _487
REMARK  201  A    between atoms: _486  and  _489
REMARK  202  A    between atoms: _489  and  _490
REMARK  203  A    between atoms: _495  and  _497
REMARK  204  A    between atoms: _497  and  _498
REMARK  205  A    between atoms: _497  and  _500
REMARK  206  A    between atoms: _500  and  _501
REMARK  207  A    between atoms: _504  and  _506
REMARK  208  A    between atoms: _506  and  _507
REMARK  209  A    between atoms: _506  and  _509
REMARK  210  A    between atoms: _509  and  _510
REMARK  211  A    between atoms: _513  and  _515
REMARK  212  A    between atoms: _515  and  _516
REMARK  213  A    between atoms: _518  and  _520
REMARK  214  A    between atoms: _520  and  _521
REMARK  215  A    between atoms: _520  and  _523
REMARK  216  A    between atoms: _523  and  _524
REMARK  217  A    between atoms: _524  and  _525
REMARK  218  A    between atoms: _525  and  _526
REMARK  219  A    between atoms: _535  and  _537
REMARK  220  A    between atoms: _537  and  _538
REMARK  221  A    between atoms: _537  and  _540
REMARK  222  A    between atoms: _540  and  _541
REMARK                            x       y       z     vdW  Elec       q    Type
REMARK                         _______ _______ _______ _____ _____    ______ ____
ROOT
ATOM      1  O   HOH     1      24.323  17.345  10.517  0.00  0.00    +0.000 OA
ENDROOT
TORSDOF 0
REMARK  Name = ../refined-set-2016/3mxd/3mxd_pocket.pdb
REMARK  222 active torsions:
REMARK  status: ('A' for Active; 'I' for Inactive)
REMARK    1  A    between atoms: _1  and  _3
REMARK    2  A    between atoms: _3  and  _4
REMARK    3  A    between atoms: _3  and  _6
REMARK    4  A    between atoms: _6  and  _7
REMARK    5  A    between atoms: _7  and  _8
REMARK    6  A    between atoms: _8  and  _9
REMARK    7  A    between atoms: _18  and  _20
REMARK    8  A    between atoms: _20  and  _21
REMARK    9  A    between atoms: _20  and  _23
REMARK   10  A    between atoms: _23  and  _24
REMARK   11  A    between atoms: _27  and  _29
REMARK   12  A    between atoms: _29  and  _30
REMARK   13  A    between atoms: _29  and  _32
REMARK   14  A    between atoms: _32  and  _33
REMARK   15  A    between atoms: _36  and  _38
REMARK   16  A    between atoms: _38  and  _39
REMARK   17  A    between atoms: _38  and  _41
REMARK   18  A    between atoms: _41  and  _42
REMARK   19  A    between atoms: _45  and  _47
REMARK   20  A    between atoms: _47  and  _48
REMARK   21  A    between atoms: _47  and  _50
REMARK   22  A    between atoms: _50  and  _51
REMARK   23  A    between atoms: _54  and  _56
REMARK   24  A    between atoms: _56  and  _57
REMARK   25  A    between atoms: _59  and  _61
REMARK   26  A    between atoms: _61  and  _62
REMARK   27  A    between atoms: _65  and  _67
REMARK   28  A    between atoms: _67  and  _68
REMARK   29  A    between atoms: _67  and  _70
REMARK   30  A    between atoms: _70  and  _71
REMARK   31  A    between atoms: _74  and  _76
REMARK   32  A    between atoms: _76  and  _77
REMARK   33  A    between atoms: _76  and  _79
REMARK   34  A    between atoms: _79  and  _80
REMARK   35  A    between atoms: _83  and  _85
REMARK   36  A    between atoms: _85  and  _86
REMARK   37  A    between atoms: _85  and  _88
REMARK   38  A    between atoms: _88  and  _89
REMARK   39  A    between atoms: _92  and  _94
REMARK   40  A    between atoms: _94  and  _95
REMARK   41  A    between atoms: _94  and  _97
REMARK   42  A    between atoms: _100  and  _102
REMARK   43  A    between atoms: _102  and  _103
REMARK   44  A    between atoms: _102  and  _105
REMARK   45  A    between atoms: _105  and  _106
REMARK   46  A    between atoms: _106  and  _107
REMARK   47  A    between atoms: _109  and  _111
REMARK   48  A    between atoms: _111  and  _112
REMARK   49  A    between atoms: _111  and  _114
REMARK   50  A    between atoms: _114  and  _115
REMARK   51  A    between atoms: _118  and  _120
REMARK   52  A    between atoms: _120  and  _121
REMARK   53  A    between atoms: _123  and  _125
REMARK   54  A    between atoms: _125  and  _126
REMARK   55  A    between atoms: _128  and  _130
REMARK   56  A    between atoms: _130  and  _131
REMARK   57  A    between atoms: _130  and  _133
REMARK   58  A    between atoms: _133  and  _134
REMARK   59  A    between atoms: _137  and  _139
REMARK   60  A    between atoms: _139  and  _140
REMARK   61  A    between atoms: _142  and  _144
REMARK   62  A    between atoms: _144  and  _145
REMARK   63  A    between atoms: _147  and  _149
REMARK   64  A    between atoms: _149  and  _150
REMARK   65  A    between atoms: _149  and  _152
REMARK   66  A    between atoms: _152  and  _153
REMARK   67  A    between atoms: _159  and  _161
REMARK   68  A    between atoms: _161  and  _162
REMARK   69  A    between atoms: _161  and  _164
REMARK   70  A    between atoms: _164  and  _165
REMARK   71  A    between atoms: _168  and  _170
REMARK   72  A    between atoms: _170  and  _171
REMARK   73  A    between atoms: _170  and  _173
REMARK   74  A    between atoms: _176  and  _178
REMARK   75  A    between atoms: _178  and  _179
REMARK   76  A    between atoms: _178  and  _181
REMARK   77  A    between atoms: _181  and  _182
REMARK   78  A    between atoms: _185  and  _187
REMARK   79  A    between atoms: _187  and  _188
REMARK   80  A    between atoms: _187  and  _190
REMARK   81  A    between atoms: _190  and  _191
REMARK   82  A    between atoms: _195  and  _196
REMARK   83  A    between atoms: _201  and  _203
REMARK   84  A    between atoms: _203  and  _204
REMARK   85  A    between atoms: _203  and  _206
REMARK   86  A    between atoms: _209  and  _211
REMARK   87  A    between atoms: _211  and  _212
REMARK   88  A    between atoms: _211  and  _214
REMARK   89  A    between atoms: _214  and  _215
REMARK   90  A    between atoms: _220  and  _222
REMARK   91  A    between atoms: _222  and  _223
REMARK   92  A    between atoms: _222  and  _225
REMARK   93  A    between atoms: _225  and  _226
REMARK   94  A    between atoms: _229  and  _231
REMARK   95  A    between atoms: _231  and  _232
REMARK   96  A    between atoms: _231  and  _234
REMARK   97  A    between atoms: _234  and  _235
REMARK   98  A    between atoms: _238  and  _240
REMARK   99  A    between atoms: _240  and  _241
REMARK  100  A    between atoms: _243  and  _245
REMARK  101  A    between atoms: _245  and  _246
REMARK  102  A    between atoms: _245  and  _248
REMARK  103  A    between atoms: _248  and  _249
REMARK  104  A    between atoms: _249  and  _250
REMARK  105  A    between atoms: _250  and  _251
REMARK  106  A    between atoms: _260  and  _262
REMARK  107  A    between atoms: _262  and  _263
REMARK  108  A    between atoms: _262  and  _265
REMARK  109  A    between atoms: _265  and  _266
REMARK  110  A    between atoms: _271  and  _273
REMARK  111  A    between atoms: _273  and  _274
REMARK  112  A    between atoms: _273  and  _276
REMARK  113  A    between atoms: _276  and  _277
REMARK  114  A    between atoms: _277  and  _278
REMARK  115  A    between atoms: _278  and  _279
REMARK  116  A    between atoms: _288  and  _290
REMARK  117  A    between atoms: _290  and  _291
REMARK  118  A    between atoms: _290  and  _293
REMARK  119  A    between atoms: _293  and  _294
REMARK  120  A    between atoms: _297  and  _299
REMARK  121  A    between atoms: _299  and  _300
REMARK  122  A    between atoms: _299  and  _302
REMARK  123  A    between atoms: _302  and  _303
REMARK  124  A    between atoms: _306  and  _308
REMARK  125  A    between atoms: _308  and  _309
REMARK  126  A    between atoms: _308  and  _311
REMARK  127  A    between atoms: _311  and  _312
REMARK  128  A    between atoms: _315  and  _317
REMARK  129  A    between atoms: _317  and  _318
REMARK  130  A    between atoms: _317  and  _320
REMARK  131  A    between atoms: _320  and  _321
REMARK  132  A    between atoms: _324  and  _326
REMARK  133  A    between atoms: _326  and  _327
REMARK  134  A    between atoms: _329  and  _331
REMARK  135  A    between atoms: _331  and  _332
REMARK  136  A    between atoms: _335  and  _337
REMARK  137  A    between atoms: _337  and  _338
REMARK  138  A    between atoms: _337  and  _340
REMARK  139  A    between atoms: _340  and  _341
REMARK  140  A    between atoms: _344  and  _346
REMARK  141  A    between atoms: _346  and  _347
REMARK  142  A    between atoms: _346  and  _349
REMARK  143  A    between atoms: _349  and  _350
REMARK  144  A    between atoms: _353  and  _355
REMARK  145  A    between atoms: _355  and  _356
REMARK  146  A    between atoms: _355  and  _358
REMARK  147  A    between atoms: _358  and  _359
REMARK  148  A    between atoms: _362  and  _364
REMARK  149  A    between atoms: _364  and  _365
REMARK  150  A    between atoms: _364  and  _367
REMARK  151  A    between atoms: _370  and  _372
REMARK  152  A    between atoms: _372  and  _373
REMARK  153  A    between atoms: _372  and  _375
REMARK  154  A    between atoms: _375  and  _376
REMARK  155  A    between atoms: _376  and  _377
REMARK  156  A    between atoms: _377  and  _378
REMARK  157  A    between atoms: _378  and  _379
REMARK  158  A    between atoms: _383  and  _385
REMARK  159  A    between atoms: _385  and  _386
REMARK  160  A    between atoms: _385  and  _388
REMARK  161  A    between atoms: _388  and  _389
REMARK  162  A    between atoms: _389  and  _390
REMARK  163  A    between atoms: _392  and  _394
REMARK  164  A    between atoms: _394  and  _395
REMARK  165  A    between atoms: _394  and  _397
REMARK  166  A    between atoms: _397  and  _398
REMARK  167  A    between atoms: _401  and  _403
REMARK  168  A    between atoms: _403  and  _404
REMARK  169  A    between atoms: _406  and  _408
REMARK  170  A    between atoms: _408  and  _409
REMARK  171  A    between atoms: _411  and  _413
REMARK  172  A    between atoms: _413  and  _414
REMARK  173  A    between atoms: _413  and  _416
REMARK  174  A    between atoms: _416  and  _417
REMARK  175  A    between atoms: _420  and  _422
REMARK  176  A    between atoms: _422  and  _423
REMARK  177  A    between atoms: _425  and  _427
REMARK  178  A    between atoms: _427  and  _428
REMARK  179  A    between atoms: _430  and  _432
REMARK  180  A    between atoms: _432  and  _433
REMARK  181  A    between atoms: _432  and  _435
REMARK  182  A    between atoms: _435  and  _436
REMARK  183  A    between atoms: _442  and  _444
REMARK  184  A    between atoms: _444  and  _445
REMARK  185  A    between atoms: _444  and  _447
REMARK  186  A    between atoms: _447  and  _448
REMARK  187  A    between atoms: _451  and  _453
REMARK  188  A    between atoms: _453  and  _454
REMARK  189  A    between atoms: _453  and  _456
REMARK  190  A    between atoms: _456  and  _457
REMARK  191  A    between atoms: _460  and  _462
REMARK  192  A    between atoms: _462  and  _463
REMARK  193  A    between atoms: _462  and  _465
REMARK  194  A    between atoms: _465  and  _466
REMARK  195  A    between atoms: _470  and  _471
REMARK  196  A    between atoms: _476  and  _478
REMARK  197  A    between atoms: _478  and  _479
REMARK  198  A    between atoms: _478  and  _481
REMARK  199  A    between atoms: _484  and  _486
REMARK  200  A    between atoms: _486  and  _487
REMARK  201  A    between atoms: _486  and  _489
REMARK  202  A    between atoms: _489  and  _490
REMARK  203  A    between atoms: _495  and  _497
REMARK  204  A    between atoms: _497  and  _498
REMARK  205  A    between atoms: _497  and  _500
REMARK  206  A    between atoms: _500  and  _501
REMARK  207  A    between atoms: _504  and  _506
REMARK  208  A    between atoms: _506  and  _507
REMARK  209  A    between atoms: _506  and  _509
REMARK  210  A    between atoms: _509  and  _510
REMARK  211  A    between atoms: _513  and  _515
REMARK  212  A    between atoms: _515  and  _516
REMARK  213  A    between atoms: _518  and  _520
REMARK  214  A    between atoms: _520  and  _521
REMARK  215  A    between atoms: _520  and  _523
REMARK  216  A    between atoms: _523  and  _524
REMARK  217  A    between atoms: _524  and  _525
REMARK  218  A    between atoms: _525  and  _526
REMARK  219  A    between atoms: _535  and  _537
REMARK  220  A    between atoms: _537  and  _538
REMARK  221  A    between atoms: _537  and  _540
REMARK  222  A    between atoms: _540  and  _541
REMARK                            x       y       z     vdW  Elec       q    Type
REMARK                         _______ _______ _______ _____ _____    ______ ____
ROOT
ATOM      1  O   HOH     1      25.243  25.965  12.240  0.00  0.00    +0.000 OA
ENDROOT
TORSDOF 0
REMARK  Name = ../refined-set-2016/3mxd/3mxd_pocket.pdb
REMARK  222 active torsions:
REMARK  status: ('A' for Active; 'I' for Inactive)
REMARK    1  A    between atoms: _1  and  _3
REMARK    2  A    between atoms: _3  and  _4
REMARK    3  A    between atoms: _3  and  _6
REMARK    4  A    between atoms: _6  and  _7
REMARK    5  A    between atoms: _7  and  _8
REMARK    6  A    between atoms: _8  and  _9
REMARK    7  A    between atoms: _18  and  _20
REMARK    8  A    between atoms: _20  and  _21
REMARK    9  A    between atoms: _20  and  _23
REMARK   10  A    between atoms: _23  and  _24
REMARK   11  A    between atoms: _27  and  _29
REMARK   12  A    between atoms: _29  and  _30
REMARK   13  A    between atoms: _29  and  _32
REMARK   14  A    between atoms: _32  and  _33
REMARK   15  A    between atoms: _36  and  _38
REMARK   16  A    between atoms: _38  and  _39
REMARK   17  A    between atoms: _38  and  _41
REMARK   18  A    between atoms: _41  and  _42
REMARK   19  A    between atoms: _45  and  _47
REMARK   20  A    between atoms: _47  and  _48
REMARK   21  A    between atoms: _47  and  _50
REMARK   22  A    between atoms: _50  and  _51
REMARK   23  A    between atoms: _54  and  _56
REMARK   24  A    between atoms: _56  and  _57
REMARK   25  A    between atoms: _59  and  _61
REMARK   26  A    between atoms: _61  and  _62
REMARK   27  A    between atoms: _65  and  _67
REMARK   28  A    between atoms: _67  and  _68
REMARK   29  A    between atoms: _67  and  _70
REMARK   30  A    between atoms: _70  and  _71
REMARK   31  A    between atoms: _74  and  _76
REMARK   32  A    between atoms: _76  and  _77
REMARK   33  A    between atoms: _76  and  _79
REMARK   34  A    between atoms: _79  and  _80
REMARK   35  A    between atoms: _83  and  _85
REMARK   36  A    between atoms: _85  and  _86
REMARK   37  A    between atoms: _85  and  _88
REMARK   38  A    between atoms: _88  and  _89
REMARK   39  A    between atoms: _92  and  _94
REMARK   40  A    between atoms: _94  and  _95
REMARK   41  A    between atoms: _94  and  _97
REMARK   42  A    between atoms: _100  and  _102
REMARK   43  A    between atoms: _102  and  _103
REMARK   44  A    between atoms: _102  and  _105
REMARK   45  A    between atoms: _105  and  _106
REMARK   46  A    between atoms: _106  and  _107
REMARK   47  A    between atoms: _109  and  _111
REMARK   48  A    between atoms: _111  and  _112
REMARK   49  A    between atoms: _111  and  _114
REMARK   50  A    between atoms: _114  and  _115
REMARK   51  A    between atoms: _118  and  _120
REMARK   52  A    between atoms: _120  and  _121
REMARK   53  A    between atoms: _123  and  _125
REMARK   54  A    between atoms: _125  and  _126
REMARK   55  A    between atoms: _128  and  _130
REMARK   56  A    between atoms: _130  and  _131
REMARK   57  A    between atoms: _130  and  _133
REMARK   58  A    between atoms: _133  and  _134
REMARK   59  A    between atoms: _137  and  _139
REMARK   60  A    between atoms: _139  and  _140
REMARK   61  A    between atoms: _142  and  _144
REMARK   62  A    between atoms: _144  and  _145
REMARK   63  A    between atoms: _147  and  _149
REMARK   64  A    between atoms: _149  and  _150
REMARK   65  A    between atoms: _149  and  _152
REMARK   66  A    between atoms: _152  and  _153
REMARK   67  A    between atoms: _159  and  _161
REMARK   68  A    between atoms: _161  and  _162
REMARK   69  A    between atoms: _161  and  _164
REMARK   70  A    between atoms: _164  and  _165
REMARK   71  A    between atoms: _168  and  _170
REMARK   72  A    between atoms: _170  and  _171
REMARK   73  A    between atoms: _170  and  _173
REMARK   74  A    between atoms: _176  and  _178
REMARK   75  A    between atoms: _178  and  _179
REMARK   76  A    between atoms: _178  and  _181
REMARK   77  A    between atoms: _181  and  _182
REMARK   78  A    between atoms: _185  and  _187
REMARK   79  A    between atoms: _187  and  _188
REMARK   80  A    between atoms: _187  and  _190
REMARK   81  A    between atoms: _190  and  _191
REMARK   82  A    between atoms: _195  and  _196
REMARK   83  A    between atoms: _201  and  _203
REMARK   84  A    between atoms: _203  and  _204
REMARK   85  A    between atoms: _203  and  _206
REMARK   86  A    between atoms: _209  and  _211
REMARK   87  A    between atoms: _211  and  _212
REMARK   88  A    between atoms: _211  and  _214
REMARK   89  A    between atoms: _214  and  _215
REMARK   90  A    between atoms: _220  and  _222
REMARK   91  A    between atoms: _222  and  _223
REMARK   92  A    between atoms: _222  and  _225
REMARK   93  A    between atoms: _225  and  _226
REMARK   94  A    between atoms: _229  and  _231
REMARK   95  A    between atoms: _231  and  _232
REMARK   96  A    between atoms: _231  and  _234
REMARK   97  A    between atoms: _234  and  _235
REMARK   98  A    between atoms: _238  and  _240
REMARK   99  A    between atoms: _240  and  _241
REMARK  100  A    between atoms: _243  and  _245
REMARK  101  A    between atoms: _245  and  _246
REMARK  102  A    between atoms: _245  and  _248
REMARK  103  A    between atoms: _248  and  _249
REMARK  104  A    between atoms: _249  and  _250
REMARK  105  A    between atoms: _250  and  _251
REMARK  106  A    between atoms: _260  and  _262
REMARK  107  A    between atoms: _262  and  _263
REMARK  108  A    between atoms: _262  and  _265
REMARK  109  A    between atoms: _265  and  _266
REMARK  110  A    between atoms: _271  and  _273
REMARK  111  A    between atoms: _273  and  _274
REMARK  112  A    between atoms: _273  and  _276
REMARK  113  A    between atoms: _276  and  _277
REMARK  114  A    between atoms: _277  and  _278
REMARK  115  A    between atoms: _278  and  _279
REMARK  116  A    between atoms: _288  and  _290
REMARK  117  A    between atoms: _290  and  _291
REMARK  118  A    between atoms: _290  and  _293
REMARK  119  A    between atoms: _293  and  _294
REMARK  120  A    between atoms: _297  and  _299
REMARK  121  A    between atoms: _299  and  _300
REMARK  122  A    between atoms: _299  and  _302
REMARK  123  A    between atoms: _302  and  _303
REMARK  124  A    between atoms: _306  and  _308
REMARK  125  A    between atoms: _308  and  _309
REMARK  126  A    between atoms: _308  and  _311
REMARK  127  A    between atoms: _311  and  _312
REMARK  128  A    between atoms: _315  and  _317
REMARK  129  A    between atoms: _317  and  _318
REMARK  130  A    between atoms: _317  and  _320
REMARK  131  A    between atoms: _320  and  _321
REMARK  132  A    between atoms: _324  and  _326
REMARK  133  A    between atoms: _326  and  _327
REMARK  134  A    between atoms: _329  and  _331
REMARK  135  A    between atoms: _331  and  _332
REMARK  136  A    between atoms: _335  and  _337
REMARK  137  A    between atoms: _337  and  _338
REMARK  138  A    between atoms: _337  and  _340
REMARK  139  A    between atoms: _340  and  _341
REMARK  140  A    between atoms: _344  and  _346
REMARK  141  A    between atoms: _346  and  _347
REMARK  142  A    between atoms: _346  and  _349
REMARK  143  A    between atoms: _349  and  _350
REMARK  144  A    between atoms: _353  and  _355
REMARK  145  A    between atoms: _355  and  _356
REMARK  146  A    between atoms: _355  and  _358
REMARK  147  A    between atoms: _358  and  _359
REMARK  148  A    between atoms: _362  and  _364
REMARK  149  A    between atoms: _364  and  _365
REMARK  150  A    between atoms: _364  and  _367
REMARK  151  A    between atoms: _370  and  _372
REMARK  152  A    between atoms: _372  and  _373
REMARK  153  A    between atoms: _372  and  _375
REMARK  154  A    between atoms: _375  and  _376
REMARK  155  A    between atoms: _376  and  _377
REMARK  156  A    between atoms: _377  and  _378
REMARK  157  A    between atoms: _378  and  _379
REMARK  158  A    between atoms: _383  and  _385
REMARK  159  A    between atoms: _385  and  _386
REMARK  160  A    between atoms: _385  and  _388
REMARK  161  A    between atoms: _388  and  _389
REMARK  162  A    between atoms: _389  and  _390
REMARK  163  A    between atoms: _392  and  _394
REMARK  164  A    between atoms: _394  and  _395
REMARK  165  A    between atoms: _394  and  _397
REMARK  166  A    between atoms: _397  and  _398
REMARK  167  A    between atoms: _401  and  _403
REMARK  168  A    between atoms: _403  and  _404
REMARK  169  A    between atoms: _406  and  _408
REMARK  170  A    between atoms: _408  and  _409
REMARK  171  A    between atoms: _411  and  _413
REMARK  172  A    between atoms: _413  and  _414
REMARK  173  A    between atoms: _413  and  _416
REMARK  174  A    between atoms: _416  and  _417
REMARK  175  A    between atoms: _420  and  _422
REMARK  176  A    between atoms: _422  and  _423
REMARK  177  A    between atoms: _425  and  _427
REMARK  178  A    between atoms: _427  and  _428
REMARK  179  A    between atoms: _430  and  _432
REMARK  180  A    between atoms: _432  and  _433
REMARK  181  A    between atoms: _432  and  _435
REMARK  182  A    between atoms: _435  and  _436
REMARK  183  A    between atoms: _442  and  _444
REMARK  184  A    between atoms: _444  and  _445
REMARK  185  A    between atoms: _444  and  _447
REMARK  186  A    between atoms: _447  and  _448
REMARK  187  A    between atoms: _451  and  _453
REMARK  188  A    between atoms: _453  and  _454
REMARK  189  A    between atoms: _453  and  _456
REMARK  190  A    between atoms: _456  and  _457
REMARK  191  A    between atoms: _460  and  _462
REMARK  192  A    between atoms: _462  and  _463
REMARK  193  A    between atoms: _462  and  _465
REMARK  194  A    between atoms: _465  and  _466
REMARK  195  A    between atoms: _470  and  _471
REMARK  196  A    between atoms: _476  and  _478
REMARK  197  A    between atoms: _478  and  _479
REMARK  198  A    between atoms: _478  and  _481
REMARK  199  A    between atoms: _484  and  _486
REMARK  200  A    between atoms: _486  and  _487
REMARK  201  A    between atoms: _486  and  _489
REMARK  202  A    between atoms: _489  and  _490
REMARK  203  A    between atoms: _495  and  _497
REMARK  204  A    between atoms: _497  and  _498
REMARK  205  A    between atoms: _497  and  _500
REMARK  206  A    between atoms: _500  and  _501
REMARK  207  A    between atoms: _504  and  _506
REMARK  208  A    between atoms: _506  and  _507
REMARK  209  A    between atoms: _506  and  _509
REMARK  210  A    between atoms: _509  and  _510
REMARK  211  A    between atoms: _513  and  _515
REMARK  212  A    between atoms: _515  and  _516
REMARK  213  A    between atoms: _518  and  _520
REMARK  214  A    between atoms: _520  and  _521
REMARK  215  A    between atoms: _520  and  _523
REMARK  216  A    between atoms: _523  and  _524
REMARK  217  A    between atoms: _524  and  _525
REMARK  218  A    between atoms: _525  and  _526
REMARK  219  A    between atoms: _535  and  _537
REMARK  220  A    between atoms: _537  and  _538
REMARK  221  A    between atoms: _537  and  _540
REMARK  222  A    between atoms: _540  and  _541
REMARK                            x       y       z     vdW  Elec       q    Type
REMARK                         _______ _______ _______ _____ _____    ______ ____
ROOT
ATOM      1  O   HOH     1      14.976  33.842   5.205  0.00  0.00    +0.000 OA
ENDROOT
TORSDOF 0
REMARK  Name = ../refined-set-2016/3mxd/3mxd_pocket.pdb
REMARK  222 active torsions:
REMARK  status: ('A' for Active; 'I' for Inactive)
REMARK    1  A    between atoms: _1  and  _3
REMARK    2  A    between atoms: _3  and  _4
REMARK    3  A    between atoms: _3  and  _6
REMARK    4  A    between atoms: _6  and  _7
REMARK    5  A    between atoms: _7  and  _8
REMARK    6  A    between atoms: _8  and  _9
REMARK    7  A    between atoms: _18  and  _20
REMARK    8  A    between atoms: _20  and  _21
REMARK    9  A    between atoms: _20  and  _23
REMARK   10  A    between atoms: _23  and  _24
REMARK   11  A    between atoms: _27  and  _29
REMARK   12  A    between atoms: _29  and  _30
REMARK   13  A    between atoms: _29  and  _32
REMARK   14  A    between atoms: _32  and  _33
REMARK   15  A    between atoms: _36  and  _38
REMARK   16  A    between atoms: _38  and  _39
REMARK   17  A    between atoms: _38  and  _41
REMARK   18  A    between atoms: _41  and  _42
REMARK   19  A    between atoms: _45  and  _47
REMARK   20  A    between atoms: _47  and  _48
REMARK   21  A    between atoms: _47  and  _50
REMARK   22  A    between atoms: _50  and  _51
REMARK   23  A    between atoms: _54  and  _56
REMARK   24  A    between atoms: _56  and  _57
REMARK   25  A    between atoms: _59  and  _61
REMARK   26  A    between atoms: _61  and  _62
REMARK   27  A    between atoms: _65  and  _67
REMARK   28  A    between atoms: _67  and  _68
REMARK   29  A    between atoms: _67  and  _70
REMARK   30  A    between atoms: _70  and  _71
REMARK   31  A    between atoms: _74  and  _76
REMARK   32  A    between atoms: _76  and  _77
REMARK   33  A    between atoms: _76  and  _79
REMARK   34  A    between atoms: _79  and  _80
REMARK   35  A    between atoms: _83  and  _85
REMARK   36  A    between atoms: _85  and  _86
REMARK   37  A    between atoms: _85  and  _88
REMARK   38  A    between atoms: _88  and  _89
REMARK   39  A    between atoms: _92  and  _94
REMARK   40  A    between atoms: _94  and  _95
REMARK   41  A    between atoms: _94  and  _97
REMARK   42  A    between atoms: _100  and  _102
REMARK   43  A    between atoms: _102  and  _103
REMARK   44  A    between atoms: _102  and  _105
REMARK   45  A    between atoms: _105  and  _106
REMARK   46  A    between atoms: _106  and  _107
REMARK   47  A    between atoms: _109  and  _111
REMARK   48  A    between atoms: _111  and  _112
REMARK   49  A    between atoms: _111  and  _114
REMARK   50  A    between atoms: _114  and  _115
REMARK   51  A    between atoms: _118  and  _120
REMARK   52  A    between atoms: _120  and  _121
REMARK   53  A    between atoms: _123  and  _125
REMARK   54  A    between atoms: _125  and  _126
REMARK   55  A    between atoms: _128  and  _130
REMARK   56  A    between atoms: _130  and  _131
REMARK   57  A    between atoms: _130  and  _133
REMARK   58  A    between atoms: _133  and  _134
REMARK   59  A    between atoms: _137  and  _139
REMARK   60  A    between atoms: _139  and  _140
REMARK   61  A    between atoms: _142  and  _144
REMARK   62  A    between atoms: _144  and  _145
REMARK   63  A    between atoms: _147  and  _149
REMARK   64  A    between atoms: _149  and  _150
REMARK   65  A    between atoms: _149  and  _152
REMARK   66  A    between atoms: _152  and  _153
REMARK   67  A    between atoms: _159  and  _161
REMARK   68  A    between atoms: _161  and  _162
REMARK   69  A    between atoms: _161  and  _164
REMARK   70  A    between atoms: _164  and  _165
REMARK   71  A    between atoms: _168  and  _170
REMARK   72  A    between atoms: _170  and  _171
REMARK   73  A    between atoms: _170  and  _173
REMARK   74  A    between atoms: _176  and  _178
REMARK   75  A    between atoms: _178  and  _179
REMARK   76  A    between atoms: _178  and  _181
REMARK   77  A    between atoms: _181  and  _182
REMARK   78  A    between atoms: _185  and  _187
REMARK   79  A    between atoms: _187  and  _188
REMARK   80  A    between atoms: _187  and  _190
REMARK   81  A    between atoms: _190  and  _191
REMARK   82  A    between atoms: _195  and  _196
REMARK   83  A    between atoms: _201  and  _203
REMARK   84  A    between atoms: _203  and  _204
REMARK   85  A    between atoms: _203  and  _206
REMARK   86  A    between atoms: _209  and  _211
REMARK   87  A    between atoms: _211  and  _212
REMARK   88  A    between atoms: _211  and  _214
REMARK   89  A    between atoms: _214  and  _215
REMARK   90  A    between atoms: _220  and  _222
REMARK   91  A    between atoms: _222  and  _223
REMARK   92  A    between atoms: _222  and  _225
REMARK   93  A    between atoms: _225  and  _226
REMARK   94  A    between atoms: _229  and  _231
REMARK   95  A    between atoms: _231  and  _232
REMARK   96  A    between atoms: _231  and  _234
REMARK   97  A    between atoms: _234  and  _235
REMARK   98  A    between atoms: _238  and  _240
REMARK   99  A    between atoms: _240  and  _241
REMARK  100  A    between atoms: _243  and  _245
REMARK  101  A    between atoms: _245  and  _246
REMARK  102  A    between atoms: _245  and  _248
REMARK  103  A    between atoms: _248  and  _249
REMARK  104  A    between atoms: _249  and  _250
REMARK  105  A    between atoms: _250  and  _251
REMARK  106  A    between atoms: _260  and  _262
REMARK  107  A    between atoms: _262  and  _263
REMARK  108  A    between atoms: _262  and  _265
REMARK  109  A    between atoms: _265  and  _266
REMARK  110  A    between atoms: _271  and  _273
REMARK  111  A    between atoms: _273  and  _274
REMARK  112  A    between atoms: _273  and  _276
REMARK  113  A    between atoms: _276  and  _277
REMARK  114  A    between atoms: _277  and  _278
REMARK  115  A    between atoms: _278  and  _279
REMARK  116  A    between atoms: _288  and  _290
REMARK  117  A    between atoms: _290  and  _291
REMARK  118  A    between atoms: _290  and  _293
REMARK  119  A    between atoms: _293  and  _294
REMARK  120  A    between atoms: _297  and  _299
REMARK  121  A    between atoms: _299  and  _300
REMARK  122  A    between atoms: _299  and  _302
REMARK  123  A    between atoms: _302  and  _303
REMARK  124  A    between atoms: _306  and  _308
REMARK  125  A    between atoms: _308  and  _309
REMARK  126  A    between atoms: _308  and  _311
REMARK  127  A    between atoms: _311  and  _312
REMARK  128  A    between atoms: _315  and  _317
REMARK  129  A    between atoms: _317  and  _318
REMARK  130  A    between atoms: _317  and  _320
REMARK  131  A    between atoms: _320  and  _321
REMARK  132  A    between atoms: _324  and  _326
REMARK  133  A    between atoms: _326  and  _327
REMARK  134  A    between atoms: _329  and  _331
REMARK  135  A    between atoms: _331  and  _332
REMARK  136  A    between atoms: _335  and  _337
REMARK  137  A    between atoms: _337  and  _338
REMARK  138  A    between atoms: _337  and  _340
REMARK  139  A    between atoms: _340  and  _341
REMARK  140  A    between atoms: _344  and  _346
REMARK  141  A    between atoms: _346  and  _347
REMARK  142  A    between atoms: _346  and  _349
REMARK  143  A    between atoms: _349  and  _350
REMARK  144  A    between atoms: _353  and  _355
REMARK  145  A    between atoms: _355  and  _356
REMARK  146  A    between atoms: _355  and  _358
REMARK  147  A    between atoms: _358  and  _359
REMARK  148  A    between atoms: _362  and  _364
REMARK  149  A    between atoms: _364  and  _365
REMARK  150  A    between atoms: _364  and  _367
REMARK  151  A    between atoms: _370  and  _372
REMARK  152  A    between atoms: _372  and  _373
REMARK  153  A    between atoms: _372  and  _375
REMARK  154  A    between atoms: _375  and  _376
REMARK  155  A    between atoms: _376  and  _377
REMARK  156  A    between atoms: _377  and  _378
REMARK  157  A    between atoms: _378  and  _379
REMARK  158  A    between atoms: _383  and  _385
REMARK  159  A    between atoms: _385  and  _386
REMARK  160  A    between atoms: _385  and  _388
REMARK  161  A    between atoms: _388  and  _389
REMARK  162  A    between atoms: _389  and  _390
REMARK  163  A    between atoms: _392  and  _394
REMARK  164  A    between atoms: _394  and  _395
REMARK  165  A    between atoms: _394  and  _397
REMARK  166  A    between atoms: _397  and  _398
REMARK  167  A    between atoms: _401  and  _403
REMARK  168  A    between atoms: _403  and  _404
REMARK  169  A    between atoms: _406  and  _408
REMARK  170  A    between atoms: _408  and  _409
REMARK  171  A    between atoms: _411  and  _413
REMARK  172  A    between atoms: _413  and  _414
REMARK  173  A    between atoms: _413  and  _416
REMARK  174  A    between atoms: _416  and  _417
REMARK  175  A    between atoms: _420  and  _422
REMARK  176  A    between atoms: _422  and  _423
REMARK  177  A    between atoms: _425  and  _427
REMARK  178  A    between atoms: _427  and  _428
REMARK  179  A    between atoms: _430  and  _432
REMARK  180  A    between atoms: _432  and  _433
REMARK  181  A    between atoms: _432  and  _435
REMARK  182  A    between atoms: _435  and  _436
REMARK  183  A    between atoms: _442  and  _444
REMARK  184  A    between atoms: _444  and  _445
REMARK  185  A    between atoms: _444  and  _447
REMARK  186  A    between atoms: _447  and  _448
REMARK  187  A    between atoms: _451  and  _453
REMARK  188  A    between atoms: _453  and  _454
REMARK  189  A    between atoms: _453  and  _456
REMARK  190  A    between atoms: _456  and  _457
REMARK  191  A    between atoms: _460  and  _462
REMARK  192  A    between atoms: _462  and  _463
REMARK  193  A    between atoms: _462  and  _465
REMARK  194  A    between atoms: _465  and  _466
REMARK  195  A    between atoms: _470  and  _471
REMARK  196  A    between atoms: _476  and  _478
REMARK  197  A    between atoms: _478  and  _479
REMARK  198  A    between atoms: _478  and  _481
REMARK  199  A    between atoms: _484  and  _486
REMARK  200  A    between atoms: _486  and  _487
REMARK  201  A    between atoms: _486  and  _489
REMARK  202  A    between atoms: _489  and  _490
REMARK  203  A    between atoms: _495  and  _497
REMARK  204  A    between atoms: _497  and  _498
REMARK  205  A    between atoms: _497  and  _500
REMARK  206  A    between atoms: _500  and  _501
REMARK  207  A    between atoms: _504  and  _506
REMARK  208  A    between atoms: _506  and  _507
REMARK  209  A    between atoms: _506  and  _509
REMARK  210  A    between atoms: _509  and  _510
REMARK  211  A    between atoms: _513  and  _515
REMARK  212  A    between atoms: _515  and  _516
REMARK  213  A    between atoms: _518  and  _520
REMARK  214  A    between atoms: _520  and  _521
REMARK  215  A    between atoms: _520  and  _523
REMARK  216  A    between atoms: _523  and  _524
REMARK  217  A    between atoms: _524  and  _525
REMARK  218  A    between atoms: _525  and  _526
REMARK  219  A    between atoms: _535  and  _537
REMARK  220  A    between atoms: _537  and  _538
REMARK  221  A    between atoms: _537  and  _540
REMARK  222  A    between atoms: _540  and  _541
REMARK                            x       y       z     vdW  Elec       q    Type
REMARK                         _______ _______ _______ _____ _____    ______ ____
ROOT
ATOM      1  O   HOH     1      26.196  18.417  13.490  0.00  0.00    +0.000 OA
ENDROOT
TORSDOF 0
REMARK  Name = ../refined-set-2016/3mxd/3mxd_pocket.pdb
REMARK  222 active torsions:
REMARK  status: ('A' for Active; 'I' for Inactive)
REMARK    1  A    between atoms: _1  and  _3
REMARK    2  A    between atoms: _3  and  _4
REMARK    3  A    between atoms: _3  and  _6
REMARK    4  A    between atoms: _6  and  _7
REMARK    5  A    between atoms: _7  and  _8
REMARK    6  A    between atoms: _8  and  _9
REMARK    7  A    between atoms: _18  and  _20
REMARK    8  A    between atoms: _20  and  _21
REMARK    9  A    between atoms: _20  and  _23
REMARK   10  A    between atoms: _23  and  _24
REMARK   11  A    between atoms: _27  and  _29
REMARK   12  A    between atoms: _29  and  _30
REMARK   13  A    between atoms: _29  and  _32
REMARK   14  A    between atoms: _32  and  _33
REMARK   15  A    between atoms: _36  and  _38
REMARK   16  A    between atoms: _38  and  _39
REMARK   17  A    between atoms: _38  and  _41
REMARK   18  A    between atoms: _41  and  _42
REMARK   19  A    between atoms: _45  and  _47
REMARK   20  A    between atoms: _47  and  _48
REMARK   21  A    between atoms: _47  and  _50
REMARK   22  A    between atoms: _50  and  _51
REMARK   23  A    between atoms: _54  and  _56
REMARK   24  A    between atoms: _56  and  _57
REMARK   25  A    between atoms: _59  and  _61
REMARK   26  A    between atoms: _61  and  _62
REMARK   27  A    between atoms: _65  and  _67
REMARK   28  A    between atoms: _67  and  _68
REMARK   29  A    between atoms: _67  and  _70
REMARK   30  A    between atoms: _70  and  _71
REMARK   31  A    between atoms: _74  and  _76
REMARK   32  A    between atoms: _76  and  _77
REMARK   33  A    between atoms: _76  and  _79
REMARK   34  A    between atoms: _79  and  _80
REMARK   35  A    between atoms: _83  and  _85
REMARK   36  A    between atoms: _85  and  _86
REMARK   37  A    between atoms: _85  and  _88
REMARK   38  A    between atoms: _88  and  _89
REMARK   39  A    between atoms: _92  and  _94
REMARK   40  A    between atoms: _94  and  _95
REMARK   41  A    between atoms: _94  and  _97
REMARK   42  A    between atoms: _100  and  _102
REMARK   43  A    between atoms: _102  and  _103
REMARK   44  A    between atoms: _102  and  _105
REMARK   45  A    between atoms: _105  and  _106
REMARK   46  A    between atoms: _106  and  _107
REMARK   47  A    between atoms: _109  and  _111
REMARK   48  A    between atoms: _111  and  _112
REMARK   49  A    between atoms: _111  and  _114
REMARK   50  A    between atoms: _114  and  _115
REMARK   51  A    between atoms: _118  and  _120
REMARK   52  A    between atoms: _120  and  _121
REMARK   53  A    between atoms: _123  and  _125
REMARK   54  A    between atoms: _125  and  _126
REMARK   55  A    between atoms: _128  and  _130
REMARK   56  A    between atoms: _130  and  _131
REMARK   57  A    between atoms: _130  and  _133
REMARK   58  A    between atoms: _133  and  _134
REMARK   59  A    between atoms: _137  and  _139
REMARK   60  A    between atoms: _139  and  _140
REMARK   61  A    between atoms: _142  and  _144
REMARK   62  A    between atoms: _144  and  _145
REMARK   63  A    between atoms: _147  and  _149
REMARK   64  A    between atoms: _149  and  _150
REMARK   65  A    between atoms: _149  and  _152
REMARK   66  A    between atoms: _152  and  _153
REMARK   67  A    between atoms: _159  and  _161
REMARK   68  A    between atoms: _161  and  _162
REMARK   69  A    between atoms: _161  and  _164
REMARK   70  A    between atoms: _164  and  _165
REMARK   71  A    between atoms: _168  and  _170
REMARK   72  A    between atoms: _170  and  _171
REMARK   73  A    between atoms: _170  and  _173
REMARK   74  A    between atoms: _176  and  _178
REMARK   75  A    between atoms: _178  and  _179
REMARK   76  A    between atoms: _178  and  _181
REMARK   77  A    between atoms: _181  and  _182
REMARK   78  A    between atoms: _185  and  _187
REMARK   79  A    between atoms: _187  and  _188
REMARK   80  A    between atoms: _187  and  _190
REMARK   81  A    between atoms: _190  and  _191
REMARK   82  A    between atoms: _195  and  _196
REMARK   83  A    between atoms: _201  and  _203
REMARK   84  A    between atoms: _203  and  _204
REMARK   85  A    between atoms: _203  and  _206
REMARK   86  A    between atoms: _209  and  _211
REMARK   87  A    between atoms: _211  and  _212
REMARK   88  A    between atoms: _211  and  _214
REMARK   89  A    between atoms: _214  and  _215
REMARK   90  A    between atoms: _220  and  _222
REMARK   91  A    between atoms: _222  and  _223
REMARK   92  A    between atoms: _222  and  _225
REMARK   93  A    between atoms: _225  and  _226
REMARK   94  A    between atoms: _229  and  _231
REMARK   95  A    between atoms: _231  and  _232
REMARK   96  A    between atoms: _231  and  _234
REMARK   97  A    between atoms: _234  and  _235
REMARK   98  A    between atoms: _238  and  _240
REMARK   99  A    between atoms: _240  and  _241
REMARK  100  A    between atoms: _243  and  _245
REMARK  101  A    between atoms: _245  and  _246
REMARK  102  A    between atoms: _245  and  _248
REMARK  103  A    between atoms: _248  and  _249
REMARK  104  A    between atoms: _249  and  _250
REMARK  105  A    between atoms: _250  and  _251
REMARK  106  A    between atoms: _260  and  _262
REMARK  107  A    between atoms: _262  and  _263
REMARK  108  A    between atoms: _262  and  _265
REMARK  109  A    between atoms: _265  and  _266
REMARK  110  A    between atoms: _271  and  _273
REMARK  111  A    between atoms: _273  and  _274
REMARK  112  A    between atoms: _273  and  _276
REMARK  113  A    between atoms: _276  and  _277
REMARK  114  A    between atoms: _277  and  _278
REMARK  115  A    between atoms: _278  and  _279
REMARK  116  A    between atoms: _288  and  _290
REMARK  117  A    between atoms: _290  and  _291
REMARK  118  A    between atoms: _290  and  _293
REMARK  119  A    between atoms: _293  and  _294
REMARK  120  A    between atoms: _297  and  _299
REMARK  121  A    between atoms: _299  and  _300
REMARK  122  A    between atoms: _299  and  _302
REMARK  123  A    between atoms: _302  and  _303
REMARK  124  A    between atoms: _306  and  _308
REMARK  125  A    between atoms: _308  and  _309
REMARK  126  A    between atoms: _308  and  _311
REMARK  127  A    between atoms: _311  and  _312
REMARK  128  A    between atoms: _315  and  _317
REMARK  129  A    between atoms: _317  and  _318
REMARK  130  A    between atoms: _317  and  _320
REMARK  131  A    between atoms: _320  and  _321
REMARK  132  A    between atoms: _324  and  _326
REMARK  133  A    between atoms: _326  and  _327
REMARK  134  A    between atoms: _329  and  _331
REMARK  135  A    between atoms: _331  and  _332
REMARK  136  A    between atoms: _335  and  _337
REMARK  137  A    between atoms: _337  and  _338
REMARK  138  A    between atoms: _337  and  _340
REMARK  139  A    between atoms: _340  and  _341
REMARK  140  A    between atoms: _344  and  _346
REMARK  141  A    between atoms: _346  and  _347
REMARK  142  A    between atoms: _346  and  _349
REMARK  143  A    between atoms: _349  and  _350
REMARK  144  A    between atoms: _353  and  _355
REMARK  145  A    between atoms: _355  and  _356
REMARK  146  A    between atoms: _355  and  _358
REMARK  147  A    between atoms: _358  and  _359
REMARK  148  A    between atoms: _362  and  _364
REMARK  149  A    between atoms: _364  and  _365
REMARK  150  A    between atoms: _364  and  _367
REMARK  151  A    between atoms: _370  and  _372
REMARK  152  A    between atoms: _372  and  _373
REMARK  153  A    between atoms: _372  and  _375
REMARK  154  A    between atoms: _375  and  _376
REMARK  155  A    between atoms: _376  and  _377
REMARK  156  A    between atoms: _377  and  _378
REMARK  157  A    between atoms: _378  and  _379
REMARK  158  A    between atoms: _383  and  _385
REMARK  159  A    between atoms: _385  and  _386
REMARK  160  A    between atoms: _385  and  _388
REMARK  161  A    between atoms: _388  and  _389
REMARK  162  A    between atoms: _389  and  _390
REMARK  163  A    between atoms: _392  and  _394
REMARK  164  A    between atoms: _394  and  _395
REMARK  165  A    between atoms: _394  and  _397
REMARK  166  A    between atoms: _397  and  _398
REMARK  167  A    between atoms: _401  and  _403
REMARK  168  A    between atoms: _403  and  _404
REMARK  169  A    between atoms: _406  and  _408
REMARK  170  A    between atoms: _408  and  _409
REMARK  171  A    between atoms: _411  and  _413
REMARK  172  A    between atoms: _413  and  _414
REMARK  173  A    between atoms: _413  and  _416
REMARK  174  A    between atoms: _416  and  _417
REMARK  175  A    between atoms: _420  and  _422
REMARK  176  A    between atoms: _422  and  _423
REMARK  177  A    between atoms: _425  and  _427
REMARK  178  A    between atoms: _427  and  _428
REMARK  179  A    between atoms: _430  and  _432
REMARK  180  A    between atoms: _432  and  _433
REMARK  181  A    between atoms: _432  and  _435
REMARK  182  A    between atoms: _435  and  _436
REMARK  183  A    between atoms: _442  and  _444
REMARK  184  A    between atoms: _444  and  _445
REMARK  185  A    between atoms: _444  and  _447
REMARK  186  A    between atoms: _447  and  _448
REMARK  187  A    between atoms: _451  and  _453
REMARK  188  A    between atoms: _453  and  _454
REMARK  189  A    between atoms: _453  and  _456
REMARK  190  A    between atoms: _456  and  _457
REMARK  191  A    between atoms: _460  and  _462
REMARK  192  A    between atoms: _462  and  _463
REMARK  193  A    between atoms: _462  and  _465
REMARK  194  A    between atoms: _465  and  _466
REMARK  195  A    between atoms: _470  and  _471
REMARK  196  A    between atoms: _476  and  _478
REMARK  197  A    between atoms: _478  and  _479
REMARK  198  A    between atoms: _478  and  _481
REMARK  199  A    between atoms: _484  and  _486
REMARK  200  A    between atoms: _486  and  _487
REMARK  201  A    between atoms: _486  and  _489
REMARK  202  A    between atoms: _489  and  _490
REMARK  203  A    between atoms: _495  and  _497
REMARK  204  A    between atoms: _497  and  _498
REMARK  205  A    between atoms: _497  and  _500
REMARK  206  A    between atoms: _500  and  _501
REMARK  207  A    between atoms: _504  and  _506
REMARK  208  A    between atoms: _506  and  _507
REMARK  209  A    between atoms: _506  and  _509
REMARK  210  A    between atoms: _509  and  _510
REMARK  211  A    between atoms: _513  and  _515
REMARK  212  A    between atoms: _515  and  _516
REMARK  213  A    between atoms: _518  and  _520
REMARK  214  A    between atoms: _520  and  _521
REMARK  215  A    between atoms: _520  and  _523
REMARK  216  A    between atoms: _523  and  _524
REMARK  217  A    between atoms: _524  and  _525
REMARK  218  A    between atoms: _525  and  _526
REMARK  219  A    between atoms: _535  and  _537
REMARK  220  A    between atoms: _537  and  _538
REMARK  221  A    between atoms: _537  and  _540
REMARK  222  A    between atoms: _540  and  _541
REMARK                            x       y       z     vdW  Elec       q    Type
REMARK                         _______ _______ _______ _____ _____    ______ ____
ROOT
ATOM      1  O   HOH     1      24.411  20.757   8.555  0.00  0.00    +0.000 OA
ENDROOT
TORSDOF 0
REMARK  Name = ../refined-set-2016/3mxd/3mxd_pocket.pdb
REMARK  222 active torsions:
REMARK  status: ('A' for Active; 'I' for Inactive)
REMARK    1  A    between atoms: _1  and  _3
REMARK    2  A    between atoms: _3  and  _4
REMARK    3  A    between atoms: _3  and  _6
REMARK    4  A    between atoms: _6  and  _7
REMARK    5  A    between atoms: _7  and  _8
REMARK    6  A    between atoms: _8  and  _9
REMARK    7  A    between atoms: _18  and  _20
REMARK    8  A    between atoms: _20  and  _21
REMARK    9  A    between atoms: _20  and  _23
REMARK   10  A    between atoms: _23  and  _24
REMARK   11  A    between atoms: _27  and  _29
REMARK   12  A    between atoms: _29  and  _30
REMARK   13  A    between atoms: _29  and  _32
REMARK   14  A    between atoms: _32  and  _33
REMARK   15  A    between atoms: _36  and  _38
REMARK   16  A    between atoms: _38  and  _39
REMARK   17  A    between atoms: _38  and  _41
REMARK   18  A    between atoms: _41  and  _42
REMARK   19  A    between atoms: _45  and  _47
REMARK   20  A    between atoms: _47  and  _48
REMARK   21  A    between atoms: _47  and  _50
REMARK   22  A    between atoms: _50  and  _51
REMARK   23  A    between atoms: _54  and  _56
REMARK   24  A    between atoms: _56  and  _57
REMARK   25  A    between atoms: _59  and  _61
REMARK   26  A    between atoms: _61  and  _62
REMARK   27  A    between atoms: _65  and  _67
REMARK   28  A    between atoms: _67  and  _68
REMARK   29  A    between atoms: _67  and  _70
REMARK   30  A    between atoms: _70  and  _71
REMARK   31  A    between atoms: _74  and  _76
REMARK   32  A    between atoms: _76  and  _77
REMARK   33  A    between atoms: _76  and  _79
REMARK   34  A    between atoms: _79  and  _80
REMARK   35  A    between atoms: _83  and  _85
REMARK   36  A    between atoms: _85  and  _86
REMARK   37  A    between atoms: _85  and  _88
REMARK   38  A    between atoms: _88  and  _89
REMARK   39  A    between atoms: _92  and  _94
REMARK   40  A    between atoms: _94  and  _95
REMARK   41  A    between atoms: _94  and  _97
REMARK   42  A    between atoms: _100  and  _102
REMARK   43  A    between atoms: _102  and  _103
REMARK   44  A    between atoms: _102  and  _105
REMARK   45  A    between atoms: _105  and  _106
REMARK   46  A    between atoms: _106  and  _107
REMARK   47  A    between atoms: _109  and  _111
REMARK   48  A    between atoms: _111  and  _112
REMARK   49  A    between atoms: _111  and  _114
REMARK   50  A    between atoms: _114  and  _115
REMARK   51  A    between atoms: _118  and  _120
REMARK   52  A    between atoms: _120  and  _121
REMARK   53  A    between atoms: _123  and  _125
REMARK   54  A    between atoms: _125  and  _126
REMARK   55  A    between atoms: _128  and  _130
REMARK   56  A    between atoms: _130  and  _131
REMARK   57  A    between atoms: _130  and  _133
REMARK   58  A    between atoms: _133  and  _134
REMARK   59  A    between atoms: _137  and  _139
REMARK   60  A    between atoms: _139  and  _140
REMARK   61  A    between atoms: _142  and  _144
REMARK   62  A    between atoms: _144  and  _145
REMARK   63  A    between atoms: _147  and  _149
REMARK   64  A    between atoms: _149  and  _150
REMARK   65  A    between atoms: _149  and  _152
REMARK   66  A    between atoms: _152  and  _153
REMARK   67  A    between atoms: _159  and  _161
REMARK   68  A    between atoms: _161  and  _162
REMARK   69  A    between atoms: _161  and  _164
REMARK   70  A    between atoms: _164  and  _165
REMARK   71  A    between atoms: _168  and  _170
REMARK   72  A    between atoms: _170  and  _171
REMARK   73  A    between atoms: _170  and  _173
REMARK   74  A    between atoms: _176  and  _178
REMARK   75  A    between atoms: _178  and  _179
REMARK   76  A    between atoms: _178  and  _181
REMARK   77  A    between atoms: _181  and  _182
REMARK   78  A    between atoms: _185  and  _187
REMARK   79  A    between atoms: _187  and  _188
REMARK   80  A    between atoms: _187  and  _190
REMARK   81  A    between atoms: _190  and  _191
REMARK   82  A    between atoms: _195  and  _196
REMARK   83  A    between atoms: _201  and  _203
REMARK   84  A    between atoms: _203  and  _204
REMARK   85  A    between atoms: _203  and  _206
REMARK   86  A    between atoms: _209  and  _211
REMARK   87  A    between atoms: _211  and  _212
REMARK   88  A    between atoms: _211  and  _214
REMARK   89  A    between atoms: _214  and  _215
REMARK   90  A    between atoms: _220  and  _222
REMARK   91  A    between atoms: _222  and  _223
REMARK   92  A    between atoms: _222  and  _225
REMARK   93  A    between atoms: _225  and  _226
REMARK   94  A    between atoms: _229  and  _231
REMARK   95  A    between atoms: _231  and  _232
REMARK   96  A    between atoms: _231  and  _234
REMARK   97  A    between atoms: _234  and  _235
REMARK   98  A    between atoms: _238  and  _240
REMARK   99  A    between atoms: _240  and  _241
REMARK  100  A    between atoms: _243  and  _245
REMARK  101  A    between atoms: _245  and  _246
REMARK  102  A    between atoms: _245  and  _248
REMARK  103  A    between atoms: _248  and  _249
REMARK  104  A    between atoms: _249  and  _250
REMARK  105  A    between atoms: _250  and  _251
REMARK  106  A    between atoms: _260  and  _262
REMARK  107  A    between atoms: _262  and  _263
REMARK  108  A    between atoms: _262  and  _265
REMARK  109  A    between atoms: _265  and  _266
REMARK  110  A    between atoms: _271  and  _273
REMARK  111  A    between atoms: _273  and  _274
REMARK  112  A    between atoms: _273  and  _276
REMARK  113  A    between atoms: _276  and  _277
REMARK  114  A    between atoms: _277  and  _278
REMARK  115  A    between atoms: _278  and  _279
REMARK  116  A    between atoms: _288  and  _290
REMARK  117  A    between atoms: _290  and  _291
REMARK  118  A    between atoms: _290  and  _293
REMARK  119  A    between atoms: _293  and  _294
REMARK  120  A    between atoms: _297  and  _299
REMARK  121  A    between atoms: _299  and  _300
REMARK  122  A    between atoms: _299  and  _302
REMARK  123  A    between atoms: _302  and  _303
REMARK  124  A    between atoms: _306  and  _308
REMARK  125  A    between atoms: _308  and  _309
REMARK  126  A    between atoms: _308  and  _311
REMARK  127  A    between atoms: _311  and  _312
REMARK  128  A    between atoms: _315  and  _317
REMARK  129  A    between atoms: _317  and  _318
REMARK  130  A    between atoms: _317  and  _320
REMARK  131  A    between atoms: _320  and  _321
REMARK  132  A    between atoms: _324  and  _326
REMARK  133  A    between atoms: _326  and  _327
REMARK  134  A    between atoms: _329  and  _331
REMARK  135  A    between atoms: _331  and  _332
REMARK  136  A    between atoms: _335  and  _337
REMARK  137  A    between atoms: _337  and  _338
REMARK  138  A    between atoms: _337  and  _340
REMARK  139  A    between atoms: _340  and  _341
REMARK  140  A    between atoms: _344  and  _346
REMARK  141  A    between atoms: _346  and  _347
REMARK  142  A    between atoms: _346  and  _349
REMARK  143  A    between atoms: _349  and  _350
REMARK  144  A    between atoms: _353  and  _355
REMARK  145  A    between atoms: _355  and  _356
REMARK  146  A    between atoms: _355  and  _358
REMARK  147  A    between atoms: _358  and  _359
REMARK  148  A    between atoms: _362  and  _364
REMARK  149  A    between atoms: _364  and  _365
REMARK  150  A    between atoms: _364  and  _367
REMARK  151  A    between atoms: _370  and  _372
REMARK  152  A    between atoms: _372  and  _373
REMARK  153  A    between atoms: _372  and  _375
REMARK  154  A    between atoms: _375  and  _376
REMARK  155  A    between atoms: _376  and  _377
REMARK  156  A    between atoms: _377  and  _378
REMARK  157  A    between atoms: _378  and  _379
REMARK  158  A    between atoms: _383  and  _385
REMARK  159  A    between atoms: _385  and  _386
REMARK  160  A    between atoms: _385  and  _388
REMARK  161  A    between atoms: _388  and  _389
REMARK  162  A    between atoms: _389  and  _390
REMARK  163  A    between atoms: _392  and  _394
REMARK  164  A    between atoms: _394  and  _395
REMARK  165  A    between atoms: _394  and  _397
REMARK  166  A    between atoms: _397  and  _398
REMARK  167  A    between atoms: _401  and  _403
REMARK  168  A    between atoms: _403  and  _404
REMARK  169  A    between atoms: _406  and  _408
REMARK  170  A    between atoms: _408  and  _409
REMARK  171  A    between atoms: _411  and  _413
REMARK  172  A    between atoms: _413  and  _414
REMARK  173  A    between atoms: _413  and  _416
REMARK  174  A    between atoms: _416  and  _417
REMARK  175  A    between atoms: _420  and  _422
REMARK  176  A    between atoms: _422  and  _423
REMARK  177  A    between atoms: _425  and  _427
REMARK  178  A    between atoms: _427  and  _428
REMARK  179  A    between atoms: _430  and  _432
REMARK  180  A    between atoms: _432  and  _433
REMARK  181  A    between atoms: _432  and  _435
REMARK  182  A    between atoms: _435  and  _436
REMARK  183  A    between atoms: _442  and  _444
REMARK  184  A    between atoms: _444  and  _445
REMARK  185  A    between atoms: _444  and  _447
REMARK  186  A    between atoms: _447  and  _448
REMARK  187  A    between atoms: _451  and  _453
REMARK  188  A    between atoms: _453  and  _454
REMARK  189  A    between atoms: _453  and  _456
REMARK  190  A    between atoms: _456  and  _457
REMARK  191  A    between atoms: _460  and  _462
REMARK  192  A    between atoms: _462  and  _463
REMARK  193  A    between atoms: _462  and  _465
REMARK  194  A    between atoms: _465  and  _466
REMARK  195  A    between atoms: _470  and  _471
REMARK  196  A    between atoms: _476  and  _478
REMARK  197  A    between atoms: _478  and  _479
REMARK  198  A    between atoms: _478  and  _481
REMARK  199  A    between atoms: _484  and  _486
REMARK  200  A    between atoms: _486  and  _487
REMARK  201  A    between atoms: _486  and  _489
REMARK  202  A    between atoms: _489  and  _490
REMARK  203  A    between atoms: _495  and  _497
REMARK  204  A    between atoms: _497  and  _498
REMARK  205  A    between atoms: _497  and  _500
REMARK  206  A    between atoms: _500  and  _501
REMARK  207  A    between atoms: _504  and  _506
REMARK  208  A    between atoms: _506  and  _507
REMARK  209  A    between atoms: _506  and  _509
REMARK  210  A    between atoms: _509  and  _510
REMARK  211  A    between atoms: _513  and  _515
REMARK  212  A    between atoms: _515  and  _516
REMARK  213  A    between atoms: _518  and  _520
REMARK  214  A    between atoms: _520  and  _521
REMARK  215  A    between atoms: _520  and  _523
REMARK  216  A    between atoms: _523  and  _524
REMARK  217  A    between atoms: _524  and  _525
REMARK  218  A    between atoms: _525  and  _526
REMARK  219  A    between atoms: _535  and  _537
REMARK  220  A    between atoms: _537  and  _538
REMARK  221  A    between atoms: _537  and  _540
REMARK  222  A    between atoms: _540  and  _541
REMARK                            x       y       z     vdW  Elec       q    Type
REMARK                         _______ _______ _______ _____ _____    ______ ____
ROOT
ATOM      1  O   HOH     1      30.460  21.167  11.278  0.00  0.00    +0.000 OA
ENDROOT
TORSDOF 0
REMARK  Name = ../refined-set-2016/3mxd/3mxd_pocket.pdb
REMARK  222 active torsions:
REMARK  status: ('A' for Active; 'I' for Inactive)
REMARK    1  A    between atoms: _1  and  _3
REMARK    2  A    between atoms: _3  and  _4
REMARK    3  A    between atoms: _3  and  _6
REMARK    4  A    between atoms: _6  and  _7
REMARK    5  A    between atoms: _7  and  _8
REMARK    6  A    between atoms: _8  and  _9
REMARK    7  A    between atoms: _18  and  _20
REMARK    8  A    between atoms: _20  and  _21
REMARK    9  A    between atoms: _20  and  _23
REMARK   10  A    between atoms: _23  and  _24
REMARK   11  A    between atoms: _27  and  _29
REMARK   12  A    between atoms: _29  and  _30
REMARK   13  A    between atoms: _29  and  _32
REMARK   14  A    between atoms: _32  and  _33
REMARK   15  A    between atoms: _36  and  _38
REMARK   16  A    between atoms: _38  and  _39
REMARK   17  A    between atoms: _38  and  _41
REMARK   18  A    between atoms: _41  and  _42
REMARK   19  A    between atoms: _45  and  _47
REMARK   20  A    between atoms: _47  and  _48
REMARK   21  A    between atoms: _47  and  _50
REMARK   22  A    between atoms: _50  and  _51
REMARK   23  A    between atoms: _54  and  _56
REMARK   24  A    between atoms: _56  and  _57
REMARK   25  A    between atoms: _59  and  _61
REMARK   26  A    between atoms: _61  and  _62
REMARK   27  A    between atoms: _65  and  _67
REMARK   28  A    between atoms: _67  and  _68
REMARK   29  A    between atoms: _67  and  _70
REMARK   30  A    between atoms: _70  and  _71
REMARK   31  A    between atoms: _74  and  _76
REMARK   32  A    between atoms: _76  and  _77
REMARK   33  A    between atoms: _76  and  _79
REMARK   34  A    between atoms: _79  and  _80
REMARK   35  A    between atoms: _83  and  _85
REMARK   36  A    between atoms: _85  and  _86
REMARK   37  A    between atoms: _85  and  _88
REMARK   38  A    between atoms: _88  and  _89
REMARK   39  A    between atoms: _92  and  _94
REMARK   40  A    between atoms: _94  and  _95
REMARK   41  A    between atoms: _94  and  _97
REMARK   42  A    between atoms: _100  and  _102
REMARK   43  A    between atoms: _102  and  _103
REMARK   44  A    between atoms: _102  and  _105
REMARK   45  A    between atoms: _105  and  _106
REMARK   46  A    between atoms: _106  and  _107
REMARK   47  A    between atoms: _109  and  _111
REMARK   48  A    between atoms: _111  and  _112
REMARK   49  A    between atoms: _111  and  _114
REMARK   50  A    between atoms: _114  and  _115
REMARK   51  A    between atoms: _118  and  _120
REMARK   52  A    between atoms: _120  and  _121
REMARK   53  A    between atoms: _123  and  _125
REMARK   54  A    between atoms: _125  and  _126
REMARK   55  A    between atoms: _128  and  _130
REMARK   56  A    between atoms: _130  and  _131
REMARK   57  A    between atoms: _130  and  _133
REMARK   58  A    between atoms: _133  and  _134
REMARK   59  A    between atoms: _137  and  _139
REMARK   60  A    between atoms: _139  and  _140
REMARK   61  A    between atoms: _142  and  _144
REMARK   62  A    between atoms: _144  and  _145
REMARK   63  A    between atoms: _147  and  _149
REMARK   64  A    between atoms: _149  and  _150
REMARK   65  A    between atoms: _149  and  _152
REMARK   66  A    between atoms: _152  and  _153
REMARK   67  A    between atoms: _159  and  _161
REMARK   68  A    between atoms: _161  and  _162
REMARK   69  A    between atoms: _161  and  _164
REMARK   70  A    between atoms: _164  and  _165
REMARK   71  A    between atoms: _168  and  _170
REMARK   72  A    between atoms: _170  and  _171
REMARK   73  A    between atoms: _170  and  _173
REMARK   74  A    between atoms: _176  and  _178
REMARK   75  A    between atoms: _178  and  _179
REMARK   76  A    between atoms: _178  and  _181
REMARK   77  A    between atoms: _181  and  _182
REMARK   78  A    between atoms: _185  and  _187
REMARK   79  A    between atoms: _187  and  _188
REMARK   80  A    between atoms: _187  and  _190
REMARK   81  A    between atoms: _190  and  _191
REMARK   82  A    between atoms: _195  and  _196
REMARK   83  A    between atoms: _201  and  _203
REMARK   84  A    between atoms: _203  and  _204
REMARK   85  A    between atoms: _203  and  _206
REMARK   86  A    between atoms: _209  and  _211
REMARK   87  A    between atoms: _211  and  _212
REMARK   88  A    between atoms: _211  and  _214
REMARK   89  A    between atoms: _214  and  _215
REMARK   90  A    between atoms: _220  and  _222
REMARK   91  A    between atoms: _222  and  _223
REMARK   92  A    between atoms: _222  and  _225
REMARK   93  A    between atoms: _225  and  _226
REMARK   94  A    between atoms: _229  and  _231
REMARK   95  A    between atoms: _231  and  _232
REMARK   96  A    between atoms: _231  and  _234
REMARK   97  A    between atoms: _234  and  _235
REMARK   98  A    between atoms: _238  and  _240
REMARK   99  A    between atoms: _240  and  _241
REMARK  100  A    between atoms: _243  and  _245
REMARK  101  A    between atoms: _245  and  _246
REMARK  102  A    between atoms: _245  and  _248
REMARK  103  A    between atoms: _248  and  _249
REMARK  104  A    between atoms: _249  and  _250
REMARK  105  A    between atoms: _250  and  _251
REMARK  106  A    between atoms: _260  and  _262
REMARK  107  A    between atoms: _262  and  _263
REMARK  108  A    between atoms: _262  and  _265
REMARK  109  A    between atoms: _265  and  _266
REMARK  110  A    between atoms: _271  and  _273
REMARK  111  A    between atoms: _273  and  _274
REMARK  112  A    between atoms: _273  and  _276
REMARK  113  A    between atoms: _276  and  _277
REMARK  114  A    between atoms: _277  and  _278
REMARK  115  A    between atoms: _278  and  _279
REMARK  116  A    between atoms: _288  and  _290
REMARK  117  A    between atoms: _290  and  _291
REMARK  118  A    between atoms: _290  and  _293
REMARK  119  A    between atoms: _293  and  _294
REMARK  120  A    between atoms: _297  and  _299
REMARK  121  A    between atoms: _299  and  _300
REMARK  122  A    between atoms: _299  and  _302
REMARK  123  A    between atoms: _302  and  _303
REMARK  124  A    between atoms: _306  and  _308
REMARK  125  A    between atoms: _308  and  _309
REMARK  126  A    between atoms: _308  and  _311
REMARK  127  A    between atoms: _311  and  _312
REMARK  128  A    between atoms: _315  and  _317
REMARK  129  A    between atoms: _317  and  _318
REMARK  130  A    between atoms: _317  and  _320
REMARK  131  A    between atoms: _320  and  _321
REMARK  132  A    between atoms: _324  and  _326
REMARK  133  A    between atoms: _326  and  _327
REMARK  134  A    between atoms: _329  and  _331
REMARK  135  A    between atoms: _331  and  _332
REMARK  136  A    between atoms: _335  and  _337
REMARK  137  A    between atoms: _337  and  _338
REMARK  138  A    between atoms: _337  and  _340
REMARK  139  A    between atoms: _340  and  _341
REMARK  140  A    between atoms: _344  and  _346
REMARK  141  A    between atoms: _346  and  _347
REMARK  142  A    between atoms: _346  and  _349
REMARK  143  A    between atoms: _349  and  _350
REMARK  144  A    between atoms: _353  and  _355
REMARK  145  A    between atoms: _355  and  _356
REMARK  146  A    between atoms: _355  and  _358
REMARK  147  A    between atoms: _358  and  _359
REMARK  148  A    between atoms: _362  and  _364
REMARK  149  A    between atoms: _364  and  _365
REMARK  150  A    between atoms: _364  and  _367
REMARK  151  A    between atoms: _370  and  _372
REMARK  152  A    between atoms: _372  and  _373
REMARK  153  A    between atoms: _372  and  _375
REMARK  154  A    between atoms: _375  and  _376
REMARK  155  A    between atoms: _376  and  _377
REMARK  156  A    between atoms: _377  and  _378
REMARK  157  A    between atoms: _378  and  _379
REMARK  158  A    between atoms: _383  and  _385
REMARK  159  A    between atoms: _385  and  _386
REMARK  160  A    between atoms: _385  and  _388
REMARK  161  A    between atoms: _388  and  _389
REMARK  162  A    between atoms: _389  and  _390
REMARK  163  A    between atoms: _392  and  _394
REMARK  164  A    between atoms: _394  and  _395
REMARK  165  A    between atoms: _394  and  _397
REMARK  166  A    between atoms: _397  and  _398
REMARK  167  A    between atoms: _401  and  _403
REMARK  168  A    between atoms: _403  and  _404
REMARK  169  A    between atoms: _406  and  _408
REMARK  170  A    between atoms: _408  and  _409
REMARK  171  A    between atoms: _411  and  _413
REMARK  172  A    between atoms: _413  and  _414
REMARK  173  A    between atoms: _413  and  _416
REMARK  174  A    between atoms: _416  and  _417
REMARK  175  A    between atoms: _420  and  _422
REMARK  176  A    between atoms: _422  and  _423
REMARK  177  A    between atoms: _425  and  _427
REMARK  178  A    between atoms: _427  and  _428
REMARK  179  A    between atoms: _430  and  _432
REMARK  180  A    between atoms: _432  and  _433
REMARK  181  A    between atoms: _432  and  _435
REMARK  182  A    between atoms: _435  and  _436
REMARK  183  A    between atoms: _442  and  _444
REMARK  184  A    between atoms: _444  and  _445
REMARK  185  A    between atoms: _444  and  _447
REMARK  186  A    between atoms: _447  and  _448
REMARK  187  A    between atoms: _451  and  _453
REMARK  188  A    between atoms: _453  and  _454
REMARK  189  A    between atoms: _453  and  _456
REMARK  190  A    between atoms: _456  and  _457
REMARK  191  A    between atoms: _460  and  _462
REMARK  192  A    between atoms: _462  and  _463
REMARK  193  A    between atoms: _462  and  _465
REMARK  194  A    between atoms: _465  and  _466
REMARK  195  A    between atoms: _470  and  _471
REMARK  196  A    between atoms: _476  and  _478
REMARK  197  A    between atoms: _478  and  _479
REMARK  198  A    between atoms: _478  and  _481
REMARK  199  A    between atoms: _484  and  _486
REMARK  200  A    between atoms: _486  and  _487
REMARK  201  A    between atoms: _486  and  _489
REMARK  202  A    between atoms: _489  and  _490
REMARK  203  A    between atoms: _495  and  _497
REMARK  204  A    between atoms: _497  and  _498
REMARK  205  A    between atoms: _497  and  _500
REMARK  206  A    between atoms: _500  and  _501
REMARK  207  A    between atoms: _504  and  _506
REMARK  208  A    between atoms: _506  and  _507
REMARK  209  A    between atoms: _506  and  _509
REMARK  210  A    between atoms: _509  and  _510
REMARK  211  A    between atoms: _513  and  _515
REMARK  212  A    between atoms: _515  and  _516
REMARK  213  A    between atoms: _518  and  _520
REMARK  214  A    between atoms: _520  and  _521
REMARK  215  A    between atoms: _520  and  _523
REMARK  216  A    between atoms: _523  and  _524
REMARK  217  A    between atoms: _524  and  _525
REMARK  218  A    between atoms: _525  and  _526
REMARK  219  A    between atoms: _535  and  _537
REMARK  220  A    between atoms: _537  and  _538
REMARK  221  A    between atoms: _537  and  _540
REMARK  222  A    between atoms: _540  and  _541
REMARK                            x       y       z     vdW  Elec       q    Type
REMARK                         _______ _______ _______ _____ _____    ______ ____
ROOT
ATOM      1  O   HOH     1      20.072  32.308  23.488  0.00  0.00    +0.000 OA
ENDROOT
TORSDOF 0
REMARK  Name = ../refined-set-2016/3mxd/3mxd_pocket.pdb
REMARK  222 active torsions:
REMARK  status: ('A' for Active; 'I' for Inactive)
REMARK    1  A    between atoms: _1  and  _3
REMARK    2  A    between atoms: _3  and  _4
REMARK    3  A    between atoms: _3  and  _6
REMARK    4  A    between atoms: _6  and  _7
REMARK    5  A    between atoms: _7  and  _8
REMARK    6  A    between atoms: _8  and  _9
REMARK    7  A    between atoms: _18  and  _20
REMARK    8  A    between atoms: _20  and  _21
REMARK    9  A    between atoms: _20  and  _23
REMARK   10  A    between atoms: _23  and  _24
REMARK   11  A    between atoms: _27  and  _29
REMARK   12  A    between atoms: _29  and  _30
REMARK   13  A    between atoms: _29  and  _32
REMARK   14  A    between atoms: _32  and  _33
REMARK   15  A    between atoms: _36  and  _38
REMARK   16  A    between atoms: _38  and  _39
REMARK   17  A    between atoms: _38  and  _41
REMARK   18  A    between atoms: _41  and  _42
REMARK   19  A    between atoms: _45  and  _47
REMARK   20  A    between atoms: _47  and  _48
REMARK   21  A    between atoms: _47  and  _50
REMARK   22  A    between atoms: _50  and  _51
REMARK   23  A    between atoms: _54  and  _56
REMARK   24  A    between atoms: _56  and  _57
REMARK   25  A    between atoms: _59  and  _61
REMARK   26  A    between atoms: _61  and  _62
REMARK   27  A    between atoms: _65  and  _67
REMARK   28  A    between atoms: _67  and  _68
REMARK   29  A    between atoms: _67  and  _70
REMARK   30  A    between atoms: _70  and  _71
REMARK   31  A    between atoms: _74  and  _76
REMARK   32  A    between atoms: _76  and  _77
REMARK   33  A    between atoms: _76  and  _79
REMARK   34  A    between atoms: _79  and  _80
REMARK   35  A    between atoms: _83  and  _85
REMARK   36  A    between atoms: _85  and  _86
REMARK   37  A    between atoms: _85  and  _88
REMARK   38  A    between atoms: _88  and  _89
REMARK   39  A    between atoms: _92  and  _94
REMARK   40  A    between atoms: _94  and  _95
REMARK   41  A    between atoms: _94  and  _97
REMARK   42  A    between atoms: _100  and  _102
REMARK   43  A    between atoms: _102  and  _103
REMARK   44  A    between atoms: _102  and  _105
REMARK   45  A    between atoms: _105  and  _106
REMARK   46  A    between atoms: _106  and  _107
REMARK   47  A    between atoms: _109  and  _111
REMARK   48  A    between atoms: _111  and  _112
REMARK   49  A    between atoms: _111  and  _114
REMARK   50  A    between atoms: _114  and  _115
REMARK   51  A    between atoms: _118  and  _120
REMARK   52  A    between atoms: _120  and  _121
REMARK   53  A    between atoms: _123  and  _125
REMARK   54  A    between atoms: _125  and  _126
REMARK   55  A    between atoms: _128  and  _130
REMARK   56  A    between atoms: _130  and  _131
REMARK   57  A    between atoms: _130  and  _133
REMARK   58  A    between atoms: _133  and  _134
REMARK   59  A    between atoms: _137  and  _139
REMARK   60  A    between atoms: _139  and  _140
REMARK   61  A    between atoms: _142  and  _144
REMARK   62  A    between atoms: _144  and  _145
REMARK   63  A    between atoms: _147  and  _149
REMARK   64  A    between atoms: _149  and  _150
REMARK   65  A    between atoms: _149  and  _152
REMARK   66  A    between atoms: _152  and  _153
REMARK   67  A    between atoms: _159  and  _161
REMARK   68  A    between atoms: _161  and  _162
REMARK   69  A    between atoms: _161  and  _164
REMARK   70  A    between atoms: _164  and  _165
REMARK   71  A    between atoms: _168  and  _170
REMARK   72  A    between atoms: _170  and  _171
REMARK   73  A    between atoms: _170  and  _173
REMARK   74  A    between atoms: _176  and  _178
REMARK   75  A    between atoms: _178  and  _179
REMARK   76  A    between atoms: _178  and  _181
REMARK   77  A    between atoms: _181  and  _182
REMARK   78  A    between atoms: _185  and  _187
REMARK   79  A    between atoms: _187  and  _188
REMARK   80  A    between atoms: _187  and  _190
REMARK   81  A    between atoms: _190  and  _191
REMARK   82  A    between atoms: _195  and  _196
REMARK   83  A    between atoms: _201  and  _203
REMARK   84  A    between atoms: _203  and  _204
REMARK   85  A    between atoms: _203  and  _206
REMARK   86  A    between atoms: _209  and  _211
REMARK   87  A    between atoms: _211  and  _212
REMARK   88  A    between atoms: _211  and  _214
REMARK   89  A    between atoms: _214  and  _215
REMARK   90  A    between atoms: _220  and  _222
REMARK   91  A    between atoms: _222  and  _223
REMARK   92  A    between atoms: _222  and  _225
REMARK   93  A    between atoms: _225  and  _226
REMARK   94  A    between atoms: _229  and  _231
REMARK   95  A    between atoms: _231  and  _232
REMARK   96  A    between atoms: _231  and  _234
REMARK   97  A    between atoms: _234  and  _235
REMARK   98  A    between atoms: _238  and  _240
REMARK   99  A    between atoms: _240  and  _241
REMARK  100  A    between atoms: _243  and  _245
REMARK  101  A    between atoms: _245  and  _246
REMARK  102  A    between atoms: _245  and  _248
REMARK  103  A    between atoms: _248  and  _249
REMARK  104  A    between atoms: _249  and  _250
REMARK  105  A    between atoms: _250  and  _251
REMARK  106  A    between atoms: _260  and  _262
REMARK  107  A    between atoms: _262  and  _263
REMARK  108  A    between atoms: _262  and  _265
REMARK  109  A    between atoms: _265  and  _266
REMARK  110  A    between atoms: _271  and  _273
REMARK  111  A    between atoms: _273  and  _274
REMARK  112  A    between atoms: _273  and  _276
REMARK  113  A    between atoms: _276  and  _277
REMARK  114  A    between atoms: _277  and  _278
REMARK  115  A    between atoms: _278  and  _279
REMARK  116  A    between atoms: _288  and  _290
REMARK  117  A    between atoms: _290  and  _291
REMARK  118  A    between atoms: _290  and  _293
REMARK  119  A    between atoms: _293  and  _294
REMARK  120  A    between atoms: _297  and  _299
REMARK  121  A    between atoms: _299  and  _300
REMARK  122  A    between atoms: _299  and  _302
REMARK  123  A    between atoms: _302  and  _303
REMARK  124  A    between atoms: _306  and  _308
REMARK  125  A    between atoms: _308  and  _309
REMARK  126  A    between atoms: _308  and  _311
REMARK  127  A    between atoms: _311  and  _312
REMARK  128  A    between atoms: _315  and  _317
REMARK  129  A    between atoms: _317  and  _318
REMARK  130  A    between atoms: _317  and  _320
REMARK  131  A    between atoms: _320  and  _321
REMARK  132  A    between atoms: _324  and  _326
REMARK  133  A    between atoms: _326  and  _327
REMARK  134  A    between atoms: _329  and  _331
REMARK  135  A    between atoms: _331  and  _332
REMARK  136  A    between atoms: _335  and  _337
REMARK  137  A    between atoms: _337  and  _338
REMARK  138  A    between atoms: _337  and  _340
REMARK  139  A    between atoms: _340  and  _341
REMARK  140  A    between atoms: _344  and  _346
REMARK  141  A    between atoms: _346  and  _347
REMARK  142  A    between atoms: _346  and  _349
REMARK  143  A    between atoms: _349  and  _350
REMARK  144  A    between atoms: _353  and  _355
REMARK  145  A    between atoms: _355  and  _356
REMARK  146  A    between atoms: _355  and  _358
REMARK  147  A    between atoms: _358  and  _359
REMARK  148  A    between atoms: _362  and  _364
REMARK  149  A    between atoms: _364  and  _365
REMARK  150  A    between atoms: _364  and  _367
REMARK  151  A    between atoms: _370  and  _372
REMARK  152  A    between atoms: _372  and  _373
REMARK  153  A    between atoms: _372  and  _375
REMARK  154  A    between atoms: _375  and  _376
REMARK  155  A    between atoms: _376  and  _377
REMARK  156  A    between atoms: _377  and  _378
REMARK  157  A    between atoms: _378  and  _379
REMARK  158  A    between atoms: _383  and  _385
REMARK  159  A    between atoms: _385  and  _386
REMARK  160  A    between atoms: _385  and  _388
REMARK  161  A    between atoms: _388  and  _389
REMARK  162  A    between atoms: _389  and  _390
REMARK  163  A    between atoms: _392  and  _394
REMARK  164  A    between atoms: _394  and  _395
REMARK  165  A    between atoms: _394  and  _397
REMARK  166  A    between atoms: _397  and  _398
REMARK  167  A    between atoms: _401  and  _403
REMARK  168  A    between atoms: _403  and  _404
REMARK  169  A    between atoms: _406  and  _408
REMARK  170  A    between atoms: _408  and  _409
REMARK  171  A    between atoms: _411  and  _413
REMARK  172  A    between atoms: _413  and  _414
REMARK  173  A    between atoms: _413  and  _416
REMARK  174  A    between atoms: _416  and  _417
REMARK  175  A    between atoms: _420  and  _422
REMARK  176  A    between atoms: _422  and  _423
REMARK  177  A    between atoms: _425  and  _427
REMARK  178  A    between atoms: _427  and  _428
REMARK  179  A    between atoms: _430  and  _432
REMARK  180  A    between atoms: _432  and  _433
REMARK  181  A    between atoms: _432  and  _435
REMARK  182  A    between atoms: _435  and  _436
REMARK  183  A    between atoms: _442  and  _444
REMARK  184  A    between atoms: _444  and  _445
REMARK  185  A    between atoms: _444  and  _447
REMARK  186  A    between atoms: _447  and  _448
REMARK  187  A    between atoms: _451  and  _453
REMARK  188  A    between atoms: _453  and  _454
REMARK  189  A    between atoms: _453  and  _456
REMARK  190  A    between atoms: _456  and  _457
REMARK  191  A    between atoms: _460  and  _462
REMARK  192  A    between atoms: _462  and  _463
REMARK  193  A    between atoms: _462  and  _465
REMARK  194  A    between atoms: _465  and  _466
REMARK  195  A    between atoms: _470  and  _471
REMARK  196  A    between atoms: _476  and  _478
REMARK  197  A    between atoms: _478  and  _479
REMARK  198  A    between atoms: _478  and  _481
REMARK  199  A    between atoms: _484  and  _486
REMARK  200  A    between atoms: _486  and  _487
REMARK  201  A    between atoms: _486  and  _489
REMARK  202  A    between atoms: _489  and  _490
REMARK  203  A    between atoms: _495  and  _497
REMARK  204  A    between atoms: _497  and  _498
REMARK  205  A    between atoms: _497  and  _500
REMARK  206  A    between atoms: _500  and  _501
REMARK  207  A    between atoms: _504  and  _506
REMARK  208  A    between atoms: _506  and  _507
REMARK  209  A    between atoms: _506  and  _509
REMARK  210  A    between atoms: _509  and  _510
REMARK  211  A    between atoms: _513  and  _515
REMARK  212  A    between atoms: _515  and  _516
REMARK  213  A    between atoms: _518  and  _520
REMARK  214  A    between atoms: _520  and  _521
REMARK  215  A    between atoms: _520  and  _523
REMARK  216  A    between atoms: _523  and  _524
REMARK  217  A    between atoms: _524  and  _525
REMARK  218  A    between atoms: _525  and  _526
REMARK  219  A    between atoms: _535  and  _537
REMARK  220  A    between atoms: _537  and  _538
REMARK  221  A    between atoms: _537  and  _540
REMARK  222  A    between atoms: _540  and  _541
REMARK                            x       y       z     vdW  Elec       q    Type
REMARK                         _______ _______ _______ _____ _____    ______ ____
ROOT
ATOM      1  O   HOH     1      20.595  34.201  21.623  0.00  0.00    +0.000 OA
ENDROOT
TORSDOF 0
REMARK  Name = ../refined-set-2016/3mxd/3mxd_pocket.pdb
REMARK  222 active torsions:
REMARK  status: ('A' for Active; 'I' for Inactive)
REMARK    1  A    between atoms: _1  and  _3
REMARK    2  A    between atoms: _3  and  _4
REMARK    3  A    between atoms: _3  and  _6
REMARK    4  A    between atoms: _6  and  _7
REMARK    5  A    between atoms: _7  and  _8
REMARK    6  A    between atoms: _8  and  _9
REMARK    7  A    between atoms: _18  and  _20
REMARK    8  A    between atoms: _20  and  _21
REMARK    9  A    between atoms: _20  and  _23
REMARK   10  A    between atoms: _23  and  _24
REMARK   11  A    between atoms: _27  and  _29
REMARK   12  A    between atoms: _29  and  _30
REMARK   13  A    between atoms: _29  and  _32
REMARK   14  A    between atoms: _32  and  _33
REMARK   15  A    between atoms: _36  and  _38
REMARK   16  A    between atoms: _38  and  _39
REMARK   17  A    between atoms: _38  and  _41
REMARK   18  A    between atoms: _41  and  _42
REMARK   19  A    between atoms: _45  and  _47
REMARK   20  A    between atoms: _47  and  _48
REMARK   21  A    between atoms: _47  and  _50
REMARK   22  A    between atoms: _50  and  _51
REMARK   23  A    between atoms: _54  and  _56
REMARK   24  A    between atoms: _56  and  _57
REMARK   25  A    between atoms: _59  and  _61
REMARK   26  A    between atoms: _61  and  _62
REMARK   27  A    between atoms: _65  and  _67
REMARK   28  A    between atoms: _67  and  _68
REMARK   29  A    between atoms: _67  and  _70
REMARK   30  A    between atoms: _70  and  _71
REMARK   31  A    between atoms: _74  and  _76
REMARK   32  A    between atoms: _76  and  _77
REMARK   33  A    between atoms: _76  and  _79
REMARK   34  A    between atoms: _79  and  _80
REMARK   35  A    between atoms: _83  and  _85
REMARK   36  A    between atoms: _85  and  _86
REMARK   37  A    between atoms: _85  and  _88
REMARK   38  A    between atoms: _88  and  _89
REMARK   39  A    between atoms: _92  and  _94
REMARK   40  A    between atoms: _94  and  _95
REMARK   41  A    between atoms: _94  and  _97
REMARK   42  A    between atoms: _100  and  _102
REMARK   43  A    between atoms: _102  and  _103
REMARK   44  A    between atoms: _102  and  _105
REMARK   45  A    between atoms: _105  and  _106
REMARK   46  A    between atoms: _106  and  _107
REMARK   47  A    between atoms: _109  and  _111
REMARK   48  A    between atoms: _111  and  _112
REMARK   49  A    between atoms: _111  and  _114
REMARK   50  A    between atoms: _114  and  _115
REMARK   51  A    between atoms: _118  and  _120
REMARK   52  A    between atoms: _120  and  _121
REMARK   53  A    between atoms: _123  and  _125
REMARK   54  A    between atoms: _125  and  _126
REMARK   55  A    between atoms: _128  and  _130
REMARK   56  A    between atoms: _130  and  _131
REMARK   57  A    between atoms: _130  and  _133
REMARK   58  A    between atoms: _133  and  _134
REMARK   59  A    between atoms: _137  and  _139
REMARK   60  A    between atoms: _139  and  _140
REMARK   61  A    between atoms: _142  and  _144
REMARK   62  A    between atoms: _144  and  _145
REMARK   63  A    between atoms: _147  and  _149
REMARK   64  A    between atoms: _149  and  _150
REMARK   65  A    between atoms: _149  and  _152
REMARK   66  A    between atoms: _152  and  _153
REMARK   67  A    between atoms: _159  and  _161
REMARK   68  A    between atoms: _161  and  _162
REMARK   69  A    between atoms: _161  and  _164
REMARK   70  A    between atoms: _164  and  _165
REMARK   71  A    between atoms: _168  and  _170
REMARK   72  A    between atoms: _170  and  _171
REMARK   73  A    between atoms: _170  and  _173
REMARK   74  A    between atoms: _176  and  _178
REMARK   75  A    between atoms: _178  and  _179
REMARK   76  A    between atoms: _178  and  _181
REMARK   77  A    between atoms: _181  and  _182
REMARK   78  A    between atoms: _185  and  _187
REMARK   79  A    between atoms: _187  and  _188
REMARK   80  A    between atoms: _187  and  _190
REMARK   81  A    between atoms: _190  and  _191
REMARK   82  A    between atoms: _195  and  _196
REMARK   83  A    between atoms: _201  and  _203
REMARK   84  A    between atoms: _203  and  _204
REMARK   85  A    between atoms: _203  and  _206
REMARK   86  A    between atoms: _209  and  _211
REMARK   87  A    between atoms: _211  and  _212
REMARK   88  A    between atoms: _211  and  _214
REMARK   89  A    between atoms: _214  and  _215
REMARK   90  A    between atoms: _220  and  _222
REMARK   91  A    between atoms: _222  and  _223
REMARK   92  A    between atoms: _222  and  _225
REMARK   93  A    between atoms: _225  and  _226
REMARK   94  A    between atoms: _229  and  _231
REMARK   95  A    between atoms: _231  and  _232
REMARK   96  A    between atoms: _231  and  _234
REMARK   97  A    between atoms: _234  and  _235
REMARK   98  A    between atoms: _238  and  _240
REMARK   99  A    between atoms: _240  and  _241
REMARK  100  A    between atoms: _243  and  _245
REMARK  101  A    between atoms: _245  and  _246
REMARK  102  A    between atoms: _245  and  _248
REMARK  103  A    between atoms: _248  and  _249
REMARK  104  A    between atoms: _249  and  _250
REMARK  105  A    between atoms: _250  and  _251
REMARK  106  A    between atoms: _260  and  _262
REMARK  107  A    between atoms: _262  and  _263
REMARK  108  A    between atoms: _262  and  _265
REMARK  109  A    between atoms: _265  and  _266
REMARK  110  A    between atoms: _271  and  _273
REMARK  111  A    between atoms: _273  and  _274
REMARK  112  A    between atoms: _273  and  _276
REMARK  113  A    between atoms: _276  and  _277
REMARK  114  A    between atoms: _277  and  _278
REMARK  115  A    between atoms: _278  and  _279
REMARK  116  A    between atoms: _288  and  _290
REMARK  117  A    between atoms: _290  and  _291
REMARK  118  A    between atoms: _290  and  _293
REMARK  119  A    between atoms: _293  and  _294
REMARK  120  A    between atoms: _297  and  _299
REMARK  121  A    between atoms: _299  and  _300
REMARK  122  A    between atoms: _299  and  _302
REMARK  123  A    between atoms: _302  and  _303
REMARK  124  A    between atoms: _306  and  _308
REMARK  125  A    between atoms: _308  and  _309
REMARK  126  A    between atoms: _308  and  _311
REMARK  127  A    between atoms: _311  and  _312
REMARK  128  A    between atoms: _315  and  _317
REMARK  129  A    between atoms: _317  and  _318
REMARK  130  A    between atoms: _317  and  _320
REMARK  131  A    between atoms: _320  and  _321
REMARK  132  A    between atoms: _324  and  _326
REMARK  133  A    between atoms: _326  and  _327
REMARK  134  A    between atoms: _329  and  _331
REMARK  135  A    between atoms: _331  and  _332
REMARK  136  A    between atoms: _335  and  _337
REMARK  137  A    between atoms: _337  and  _338
REMARK  138  A    between atoms: _337  and  _340
REMARK  139  A    between atoms: _340  and  _341
REMARK  140  A    between atoms: _344  and  _346
REMARK  141  A    between atoms: _346  and  _347
REMARK  142  A    between atoms: _346  and  _349
REMARK  143  A    between atoms: _349  and  _350
REMARK  144  A    between atoms: _353  and  _355
REMARK  145  A    between atoms: _355  and  _356
REMARK  146  A    between atoms: _355  and  _358
REMARK  147  A    between atoms: _358  and  _359
REMARK  148  A    between atoms: _362  and  _364
REMARK  149  A    between atoms: _364  and  _365
REMARK  150  A    between atoms: _364  and  _367
REMARK  151  A    between atoms: _370  and  _372
REMARK  152  A    between atoms: _372  and  _373
REMARK  153  A    between atoms: _372  and  _375
REMARK  154  A    between atoms: _375  and  _376
REMARK  155  A    between atoms: _376  and  _377
REMARK  156  A    between atoms: _377  and  _378
REMARK  157  A    between atoms: _378  and  _379
REMARK  158  A    between atoms: _383  and  _385
REMARK  159  A    between atoms: _385  and  _386
REMARK  160  A    between atoms: _385  and  _388
REMARK  161  A    between atoms: _388  and  _389
REMARK  162  A    between atoms: _389  and  _390
REMARK  163  A    between atoms: _392  and  _394
REMARK  164  A    between atoms: _394  and  _395
REMARK  165  A    between atoms: _394  and  _397
REMARK  166  A    between atoms: _397  and  _398
REMARK  167  A    between atoms: _401  and  _403
REMARK  168  A    between atoms: _403  and  _404
REMARK  169  A    between atoms: _406  and  _408
REMARK  170  A    between atoms: _408  and  _409
REMARK  171  A    between atoms: _411  and  _413
REMARK  172  A    between atoms: _413  and  _414
REMARK  173  A    between atoms: _413  and  _416
REMARK  174  A    between atoms: _416  and  _417
REMARK  175  A    between atoms: _420  and  _422
REMARK  176  A    between atoms: _422  and  _423
REMARK  177  A    between atoms: _425  and  _427
REMARK  178  A    between atoms: _427  and  _428
REMARK  179  A    between atoms: _430  and  _432
REMARK  180  A    between atoms: _432  and  _433
REMARK  181  A    between atoms: _432  and  _435
REMARK  182  A    between atoms: _435  and  _436
REMARK  183  A    between atoms: _442  and  _444
REMARK  184  A    between atoms: _444  and  _445
REMARK  185  A    between atoms: _444  and  _447
REMARK  186  A    between atoms: _447  and  _448
REMARK  187  A    between atoms: _451  and  _453
REMARK  188  A    between atoms: _453  and  _454
REMARK  189  A    between atoms: _453  and  _456
REMARK  190  A    between atoms: _456  and  _457
REMARK  191  A    between atoms: _460  and  _462
REMARK  192  A    between atoms: _462  and  _463
REMARK  193  A    between atoms: _462  and  _465
REMARK  194  A    between atoms: _465  and  _466
REMARK  195  A    between atoms: _470  and  _471
REMARK  196  A    between atoms: _476  and  _478
REMARK  197  A    between atoms: _478  and  _479
REMARK  198  A    between atoms: _478  and  _481
REMARK  199  A    between atoms: _484  and  _486
REMARK  200  A    between atoms: _486  and  _487
REMARK  201  A    between atoms: _486  and  _489
REMARK  202  A    between atoms: _489  and  _490
REMARK  203  A    between atoms: _495  and  _497
REMARK  204  A    between atoms: _497  and  _498
REMARK  205  A    between atoms: _497  and  _500
REMARK  206  A    between atoms: _500  and  _501
REMARK  207  A    between atoms: _504  and  _506
REMARK  208  A    between atoms: _506  and  _507
REMARK  209  A    between atoms: _506  and  _509
REMARK  210  A    between atoms: _509  and  _510
REMARK  211  A    between atoms: _513  and  _515
REMARK  212  A    between atoms: _515  and  _516
REMARK  213  A    between atoms: _518  and  _520
REMARK  214  A    between atoms: _520  and  _521
REMARK  215  A    between atoms: _520  and  _523
REMARK  216  A    between atoms: _523  and  _524
REMARK  217  A    between atoms: _524  and  _525
REMARK  218  A    between atoms: _525  and  _526
REMARK  219  A    between atoms: _535  and  _537
REMARK  220  A    between atoms: _537  and  _538
REMARK  221  A    between atoms: _537  and  _540
REMARK  222  A    between atoms: _540  and  _541
REMARK                            x       y       z     vdW  Elec       q    Type
REMARK                         _______ _______ _______ _____ _____    ______ ____
ROOT
ATOM      1  O   HOH     1      18.525  34.599  19.492  0.00  0.00    +0.000 OA
ENDROOT
TORSDOF 0
REMARK  Name = ../refined-set-2016/3mxd/3mxd_pocket.pdb
REMARK  222 active torsions:
REMARK  status: ('A' for Active; 'I' for Inactive)
REMARK    1  A    between atoms: _1  and  _3
REMARK    2  A    between atoms: _3  and  _4
REMARK    3  A    between atoms: _3  and  _6
REMARK    4  A    between atoms: _6  and  _7
REMARK    5  A    between atoms: _7  and  _8
REMARK    6  A    between atoms: _8  and  _9
REMARK    7  A    between atoms: _18  and  _20
REMARK    8  A    between atoms: _20  and  _21
REMARK    9  A    between atoms: _20  and  _23
REMARK   10  A    between atoms: _23  and  _24
REMARK   11  A    between atoms: _27  and  _29
REMARK   12  A    between atoms: _29  and  _30
REMARK   13  A    between atoms: _29  and  _32
REMARK   14  A    between atoms: _32  and  _33
REMARK   15  A    between atoms: _36  and  _38
REMARK   16  A    between atoms: _38  and  _39
REMARK   17  A    between atoms: _38  and  _41
REMARK   18  A    between atoms: _41  and  _42
REMARK   19  A    between atoms: _45  and  _47
REMARK   20  A    between atoms: _47  and  _48
REMARK   21  A    between atoms: _47  and  _50
REMARK   22  A    between atoms: _50  and  _51
REMARK   23  A    between atoms: _54  and  _56
REMARK   24  A    between atoms: _56  and  _57
REMARK   25  A    between atoms: _59  and  _61
REMARK   26  A    between atoms: _61  and  _62
REMARK   27  A    between atoms: _65  and  _67
REMARK   28  A    between atoms: _67  and  _68
REMARK   29  A    between atoms: _67  and  _70
REMARK   30  A    between atoms: _70  and  _71
REMARK   31  A    between atoms: _74  and  _76
REMARK   32  A    between atoms: _76  and  _77
REMARK   33  A    between atoms: _76  and  _79
REMARK   34  A    between atoms: _79  and  _80
REMARK   35  A    between atoms: _83  and  _85
REMARK   36  A    between atoms: _85  and  _86
REMARK   37  A    between atoms: _85  and  _88
REMARK   38  A    between atoms: _88  and  _89
REMARK   39  A    between atoms: _92  and  _94
REMARK   40  A    between atoms: _94  and  _95
REMARK   41  A    between atoms: _94  and  _97
REMARK   42  A    between atoms: _100  and  _102
REMARK   43  A    between atoms: _102  and  _103
REMARK   44  A    between atoms: _102  and  _105
REMARK   45  A    between atoms: _105  and  _106
REMARK   46  A    between atoms: _106  and  _107
REMARK   47  A    between atoms: _109  and  _111
REMARK   48  A    between atoms: _111  and  _112
REMARK   49  A    between atoms: _111  and  _114
REMARK   50  A    between atoms: _114  and  _115
REMARK   51  A    between atoms: _118  and  _120
REMARK   52  A    between atoms: _120  and  _121
REMARK   53  A    between atoms: _123  and  _125
REMARK   54  A    between atoms: _125  and  _126
REMARK   55  A    between atoms: _128  and  _130
REMARK   56  A    between atoms: _130  and  _131
REMARK   57  A    between atoms: _130  and  _133
REMARK   58  A    between atoms: _133  and  _134
REMARK   59  A    between atoms: _137  and  _139
REMARK   60  A    between atoms: _139  and  _140
REMARK   61  A    between atoms: _142  and  _144
REMARK   62  A    between atoms: _144  and  _145
REMARK   63  A    between atoms: _147  and  _149
REMARK   64  A    between atoms: _149  and  _150
REMARK   65  A    between atoms: _149  and  _152
REMARK   66  A    between atoms: _152  and  _153
REMARK   67  A    between atoms: _159  and  _161
REMARK   68  A    between atoms: _161  and  _162
REMARK   69  A    between atoms: _161  and  _164
REMARK   70  A    between atoms: _164  and  _165
REMARK   71  A    between atoms: _168  and  _170
REMARK   72  A    between atoms: _170  and  _171
REMARK   73  A    between atoms: _170  and  _173
REMARK   74  A    between atoms: _176  and  _178
REMARK   75  A    between atoms: _178  and  _179
REMARK   76  A    between atoms: _178  and  _181
REMARK   77  A    between atoms: _181  and  _182
REMARK   78  A    between atoms: _185  and  _187
REMARK   79  A    between atoms: _187  and  _188
REMARK   80  A    between atoms: _187  and  _190
REMARK   81  A    between atoms: _190  and  _191
REMARK   82  A    between atoms: _195  and  _196
REMARK   83  A    between atoms: _201  and  _203
REMARK   84  A    between atoms: _203  and  _204
REMARK   85  A    between atoms: _203  and  _206
REMARK   86  A    between atoms: _209  and  _211
REMARK   87  A    between atoms: _211  and  _212
REMARK   88  A    between atoms: _211  and  _214
REMARK   89  A    between atoms: _214  and  _215
REMARK   90  A    between atoms: _220  and  _222
REMARK   91  A    between atoms: _222  and  _223
REMARK   92  A    between atoms: _222  and  _225
REMARK   93  A    between atoms: _225  and  _226
REMARK   94  A    between atoms: _229  and  _231
REMARK   95  A    between atoms: _231  and  _232
REMARK   96  A    between atoms: _231  and  _234
REMARK   97  A    between atoms: _234  and  _235
REMARK   98  A    between atoms: _238  and  _240
REMARK   99  A    between atoms: _240  and  _241
REMARK  100  A    between atoms: _243  and  _245
REMARK  101  A    between atoms: _245  and  _246
REMARK  102  A    between atoms: _245  and  _248
REMARK  103  A    between atoms: _248  and  _249
REMARK  104  A    between atoms: _249  and  _250
REMARK  105  A    between atoms: _250  and  _251
REMARK  106  A    between atoms: _260  and  _262
REMARK  107  A    between atoms: _262  and  _263
REMARK  108  A    between atoms: _262  and  _265
REMARK  109  A    between atoms: _265  and  _266
REMARK  110  A    between atoms: _271  and  _273
REMARK  111  A    between atoms: _273  and  _274
REMARK  112  A    between atoms: _273  and  _276
REMARK  113  A    between atoms: _276  and  _277
REMARK  114  A    between atoms: _277  and  _278
REMARK  115  A    between atoms: _278  and  _279
REMARK  116  A    between atoms: _288  and  _290
REMARK  117  A    between atoms: _290  and  _291
REMARK  118  A    between atoms: _290  and  _293
REMARK  119  A    between atoms: _293  and  _294
REMARK  120  A    between atoms: _297  and  _299
REMARK  121  A    between atoms: _299  and  _300
REMARK  122  A    between atoms: _299  and  _302
REMARK  123  A    between atoms: _302  and  _303
REMARK  124  A    between atoms: _306  and  _308
REMARK  125  A    between atoms: _308  and  _309
REMARK  126  A    between atoms: _308  and  _311
REMARK  127  A    between atoms: _311  and  _312
REMARK  128  A    between atoms: _315  and  _317
REMARK  129  A    between atoms: _317  and  _318
REMARK  130  A    between atoms: _317  and  _320
REMARK  131  A    between atoms: _320  and  _321
REMARK  132  A    between atoms: _324  and  _326
REMARK  133  A    between atoms: _326  and  _327
REMARK  134  A    between atoms: _329  and  _331
REMARK  135  A    between atoms: _331  and  _332
REMARK  136  A    between atoms: _335  and  _337
REMARK  137  A    between atoms: _337  and  _338
REMARK  138  A    between atoms: _337  and  _340
REMARK  139  A    between atoms: _340  and  _341
REMARK  140  A    between atoms: _344  and  _346
REMARK  141  A    between atoms: _346  and  _347
REMARK  142  A    between atoms: _346  and  _349
REMARK  143  A    between atoms: _349  and  _350
REMARK  144  A    between atoms: _353  and  _355
REMARK  145  A    between atoms: _355  and  _356
REMARK  146  A    between atoms: _355  and  _358
REMARK  147  A    between atoms: _358  and  _359
REMARK  148  A    between atoms: _362  and  _364
REMARK  149  A    between atoms: _364  and  _365
REMARK  150  A    between atoms: _364  and  _367
REMARK  151  A    between atoms: _370  and  _372
REMARK  152  A    between atoms: _372  and  _373
REMARK  153  A    between atoms: _372  and  _375
REMARK  154  A    between atoms: _375  and  _376
REMARK  155  A    between atoms: _376  and  _377
REMARK  156  A    between atoms: _377  and  _378
REMARK  157  A    between atoms: _378  and  _379
REMARK  158  A    between atoms: _383  and  _385
REMARK  159  A    between atoms: _385  and  _386
REMARK  160  A    between atoms: _385  and  _388
REMARK  161  A    between atoms: _388  and  _389
REMARK  162  A    between atoms: _389  and  _390
REMARK  163  A    between atoms: _392  and  _394
REMARK  164  A    between atoms: _394  and  _395
REMARK  165  A    between atoms: _394  and  _397
REMARK  166  A    between atoms: _397  and  _398
REMARK  167  A    between atoms: _401  and  _403
REMARK  168  A    between atoms: _403  and  _404
REMARK  169  A    between atoms: _406  and  _408
REMARK  170  A    between atoms: _408  and  _409
REMARK  171  A    between atoms: _411  and  _413
REMARK  172  A    between atoms: _413  and  _414
REMARK  173  A    between atoms: _413  and  _416
REMARK  174  A    between atoms: _416  and  _417
REMARK  175  A    between atoms: _420  and  _422
REMARK  176  A    between atoms: _422  and  _423
REMARK  177  A    between atoms: _425  and  _427
REMARK  178  A    between atoms: _427  and  _428
REMARK  179  A    between atoms: _430  and  _432
REMARK  180  A    between atoms: _432  and  _433
REMARK  181  A    between atoms: _432  and  _435
REMARK  182  A    between atoms: _435  and  _436
REMARK  183  A    between atoms: _442  and  _444
REMARK  184  A    between atoms: _444  and  _445
REMARK  185  A    between atoms: _444  and  _447
REMARK  186  A    between atoms: _447  and  _448
REMARK  187  A    between atoms: _451  and  _453
REMARK  188  A    between atoms: _453  and  _454
REMARK  189  A    between atoms: _453  and  _456
REMARK  190  A    between atoms: _456  and  _457
REMARK  191  A    between atoms: _460  and  _462
REMARK  192  A    between atoms: _462  and  _463
REMARK  193  A    between atoms: _462  and  _465
REMARK  194  A    between atoms: _465  and  _466
REMARK  195  A    between atoms: _470  and  _471
REMARK  196  A    between atoms: _476  and  _478
REMARK  197  A    between atoms: _478  and  _479
REMARK  198  A    between atoms: _478  and  _481
REMARK  199  A    between atoms: _484  and  _486
REMARK  200  A    between atoms: _486  and  _487
REMARK  201  A    between atoms: _486  and  _489
REMARK  202  A    between atoms: _489  and  _490
REMARK  203  A    between atoms: _495  and  _497
REMARK  204  A    between atoms: _497  and  _498
REMARK  205  A    between atoms: _497  and  _500
REMARK  206  A    between atoms: _500  and  _501
REMARK  207  A    between atoms: _504  and  _506
REMARK  208  A    between atoms: _506  and  _507
REMARK  209  A    between atoms: _506  and  _509
REMARK  210  A    between atoms: _509  and  _510
REMARK  211  A    between atoms: _513  and  _515
REMARK  212  A    between atoms: _515  and  _516
REMARK  213  A    between atoms: _518  and  _520
REMARK  214  A    between atoms: _520  and  _521
REMARK  215  A    between atoms: _520  and  _523
REMARK  216  A    between atoms: _523  and  _524
REMARK  217  A    between atoms: _524  and  _525
REMARK  218  A    between atoms: _525  and  _526
REMARK  219  A    between atoms: _535  and  _537
REMARK  220  A    between atoms: _537  and  _538
REMARK  221  A    between atoms: _537  and  _540
REMARK  222  A    between atoms: _540  and  _541
REMARK                            x       y       z     vdW  Elec       q    Type
REMARK                         _______ _______ _______ _____ _____    ______ ____
ROOT
ATOM      1  O   HOH     1       9.179  34.659  21.320  0.00  0.00    +0.000 OA
ENDROOT
TORSDOF 0
REMARK  Name = ../refined-set-2016/3mxd/3mxd_pocket.pdb
REMARK  222 active torsions:
REMARK  status: ('A' for Active; 'I' for Inactive)
REMARK    1  A    between atoms: _1  and  _3
REMARK    2  A    between atoms: _3  and  _4
REMARK    3  A    between atoms: _3  and  _6
REMARK    4  A    between atoms: _6  and  _7
REMARK    5  A    between atoms: _7  and  _8
REMARK    6  A    between atoms: _8  and  _9
REMARK    7  A    between atoms: _18  and  _20
REMARK    8  A    between atoms: _20  and  _21
REMARK    9  A    between atoms: _20  and  _23
REMARK   10  A    between atoms: _23  and  _24
REMARK   11  A    between atoms: _27  and  _29
REMARK   12  A    between atoms: _29  and  _30
REMARK   13  A    between atoms: _29  and  _32
REMARK   14  A    between atoms: _32  and  _33
REMARK   15  A    between atoms: _36  and  _38
REMARK   16  A    between atoms: _38  and  _39
REMARK   17  A    between atoms: _38  and  _41
REMARK   18  A    between atoms: _41  and  _42
REMARK   19  A    between atoms: _45  and  _47
REMARK   20  A    between atoms: _47  and  _48
REMARK   21  A    between atoms: _47  and  _50
REMARK   22  A    between atoms: _50  and  _51
REMARK   23  A    between atoms: _54  and  _56
REMARK   24  A    between atoms: _56  and  _57
REMARK   25  A    between atoms: _59  and  _61
REMARK   26  A    between atoms: _61  and  _62
REMARK   27  A    between atoms: _65  and  _67
REMARK   28  A    between atoms: _67  and  _68
REMARK   29  A    between atoms: _67  and  _70
REMARK   30  A    between atoms: _70  and  _71
REMARK   31  A    between atoms: _74  and  _76
REMARK   32  A    between atoms: _76  and  _77
REMARK   33  A    between atoms: _76  and  _79
REMARK   34  A    between atoms: _79  and  _80
REMARK   35  A    between atoms: _83  and  _85
REMARK   36  A    between atoms: _85  and  _86
REMARK   37  A    between atoms: _85  and  _88
REMARK   38  A    between atoms: _88  and  _89
REMARK   39  A    between atoms: _92  and  _94
REMARK   40  A    between atoms: _94  and  _95
REMARK   41  A    between atoms: _94  and  _97
REMARK   42  A    between atoms: _100  and  _102
REMARK   43  A    between atoms: _102  and  _103
REMARK   44  A    between atoms: _102  and  _105
REMARK   45  A    between atoms: _105  and  _106
REMARK   46  A    between atoms: _106  and  _107
REMARK   47  A    between atoms: _109  and  _111
REMARK   48  A    between atoms: _111  and  _112
REMARK   49  A    between atoms: _111  and  _114
REMARK   50  A    between atoms: _114  and  _115
REMARK   51  A    between atoms: _118  and  _120
REMARK   52  A    between atoms: _120  and  _121
REMARK   53  A    between atoms: _123  and  _125
REMARK   54  A    between atoms: _125  and  _126
REMARK   55  A    between atoms: _128  and  _130
REMARK   56  A    between atoms: _130  and  _131
REMARK   57  A    between atoms: _130  and  _133
REMARK   58  A    between atoms: _133  and  _134
REMARK   59  A    between atoms: _137  and  _139
REMARK   60  A    between atoms: _139  and  _140
REMARK   61  A    between atoms: _142  and  _144
REMARK   62  A    between atoms: _144  and  _145
REMARK   63  A    between atoms: _147  and  _149
REMARK   64  A    between atoms: _149  and  _150
REMARK   65  A    between atoms: _149  and  _152
REMARK   66  A    between atoms: _152  and  _153
REMARK   67  A    between atoms: _159  and  _161
REMARK   68  A    between atoms: _161  and  _162
REMARK   69  A    between atoms: _161  and  _164
REMARK   70  A    between atoms: _164  and  _165
REMARK   71  A    between atoms: _168  and  _170
REMARK   72  A    between atoms: _170  and  _171
REMARK   73  A    between atoms: _170  and  _173
REMARK   74  A    between atoms: _176  and  _178
REMARK   75  A    between atoms: _178  and  _179
REMARK   76  A    between atoms: _178  and  _181
REMARK   77  A    between atoms: _181  and  _182
REMARK   78  A    between atoms: _185  and  _187
REMARK   79  A    between atoms: _187  and  _188
REMARK   80  A    between atoms: _187  and  _190
REMARK   81  A    between atoms: _190  and  _191
REMARK   82  A    between atoms: _195  and  _196
REMARK   83  A    between atoms: _201  and  _203
REMARK   84  A    between atoms: _203  and  _204
REMARK   85  A    between atoms: _203  and  _206
REMARK   86  A    between atoms: _209  and  _211
REMARK   87  A    between atoms: _211  and  _212
REMARK   88  A    between atoms: _211  and  _214
REMARK   89  A    between atoms: _214  and  _215
REMARK   90  A    between atoms: _220  and  _222
REMARK   91  A    between atoms: _222  and  _223
REMARK   92  A    between atoms: _222  and  _225
REMARK   93  A    between atoms: _225  and  _226
REMARK   94  A    between atoms: _229  and  _231
REMARK   95  A    between atoms: _231  and  _232
REMARK   96  A    between atoms: _231  and  _234
REMARK   97  A    between atoms: _234  and  _235
REMARK   98  A    between atoms: _238  and  _240
REMARK   99  A    between atoms: _240  and  _241
REMARK  100  A    between atoms: _243  and  _245
REMARK  101  A    between atoms: _245  and  _246
REMARK  102  A    between atoms: _245  and  _248
REMARK  103  A    between atoms: _248  and  _249
REMARK  104  A    between atoms: _249  and  _250
REMARK  105  A    between atoms: _250  and  _251
REMARK  106  A    between atoms: _260  and  _262
REMARK  107  A    between atoms: _262  and  _263
REMARK  108  A    between atoms: _262  and  _265
REMARK  109  A    between atoms: _265  and  _266
REMARK  110  A    between atoms: _271  and  _273
REMARK  111  A    between atoms: _273  and  _274
REMARK  112  A    between atoms: _273  and  _276
REMARK  113  A    between atoms: _276  and  _277
REMARK  114  A    between atoms: _277  and  _278
REMARK  115  A    between atoms: _278  and  _279
REMARK  116  A    between atoms: _288  and  _290
REMARK  117  A    between atoms: _290  and  _291
REMARK  118  A    between atoms: _290  and  _293
REMARK  119  A    between atoms: _293  and  _294
REMARK  120  A    between atoms: _297  and  _299
REMARK  121  A    between atoms: _299  and  _300
REMARK  122  A    between atoms: _299  and  _302
REMARK  123  A    between atoms: _302  and  _303
REMARK  124  A    between atoms: _306  and  _308
REMARK  125  A    between atoms: _308  and  _309
REMARK  126  A    between atoms: _308  and  _311
REMARK  127  A    between atoms: _311  and  _312
REMARK  128  A    between atoms: _315  and  _317
REMARK  129  A    between atoms: _317  and  _318
REMARK  130  A    between atoms: _317  and  _320
REMARK  131  A    between atoms: _320  and  _321
REMARK  132  A    between atoms: _324  and  _326
REMARK  133  A    between atoms: _326  and  _327
REMARK  134  A    between atoms: _329  and  _331
REMARK  135  A    between atoms: _331  and  _332
REMARK  136  A    between atoms: _335  and  _337
REMARK  137  A    between atoms: _337  and  _338
REMARK  138  A    between atoms: _337  and  _340
REMARK  139  A    between atoms: _340  and  _341
REMARK  140  A    between atoms: _344  and  _346
REMARK  141  A    between atoms: _346  and  _347
REMARK  142  A    between atoms: _346  and  _349
REMARK  143  A    between atoms: _349  and  _350
REMARK  144  A    between atoms: _353  and  _355
REMARK  145  A    between atoms: _355  and  _356
REMARK  146  A    between atoms: _355  and  _358
REMARK  147  A    between atoms: _358  and  _359
REMARK  148  A    between atoms: _362  and  _364
REMARK  149  A    between atoms: _364  and  _365
REMARK  150  A    between atoms: _364  and  _367
REMARK  151  A    between atoms: _370  and  _372
REMARK  152  A    between atoms: _372  and  _373
REMARK  153  A    between atoms: _372  and  _375
REMARK  154  A    between atoms: _375  and  _376
REMARK  155  A    between atoms: _376  and  _377
REMARK  156  A    between atoms: _377  and  _378
REMARK  157  A    between atoms: _378  and  _379
REMARK  158  A    between atoms: _383  and  _385
REMARK  159  A    between atoms: _385  and  _386
REMARK  160  A    between atoms: _385  and  _388
REMARK  161  A    between atoms: _388  and  _389
REMARK  162  A    between atoms: _389  and  _390
REMARK  163  A    between atoms: _392  and  _394
REMARK  164  A    between atoms: _394  and  _395
REMARK  165  A    between atoms: _394  and  _397
REMARK  166  A    between atoms: _397  and  _398
REMARK  167  A    between atoms: _401  and  _403
REMARK  168  A    between atoms: _403  and  _404
REMARK  169  A    between atoms: _406  and  _408
REMARK  170  A    between atoms: _408  and  _409
REMARK  171  A    between atoms: _411  and  _413
REMARK  172  A    between atoms: _413  and  _414
REMARK  173  A    between atoms: _413  and  _416
REMARK  174  A    between atoms: _416  and  _417
REMARK  175  A    between atoms: _420  and  _422
REMARK  176  A    between atoms: _422  and  _423
REMARK  177  A    between atoms: _425  and  _427
REMARK  178  A    between atoms: _427  and  _428
REMARK  179  A    between atoms: _430  and  _432
REMARK  180  A    between atoms: _432  and  _433
REMARK  181  A    between atoms: _432  and  _435
REMARK  182  A    between atoms: _435  and  _436
REMARK  183  A    between atoms: _442  and  _444
REMARK  184  A    between atoms: _444  and  _445
REMARK  185  A    between atoms: _444  and  _447
REMARK  186  A    between atoms: _447  and  _448
REMARK  187  A    between atoms: _451  and  _453
REMARK  188  A    between atoms: _453  and  _454
REMARK  189  A    between atoms: _453  and  _456
REMARK  190  A    between atoms: _456  and  _457
REMARK  191  A    between atoms: _460  and  _462
REMARK  192  A    between atoms: _462  and  _463
REMARK  193  A    between atoms: _462  and  _465
REMARK  194  A    between atoms: _465  and  _466
REMARK  195  A    between atoms: _470  and  _471
REMARK  196  A    between atoms: _476  and  _478
REMARK  197  A    between atoms: _478  and  _479
REMARK  198  A    between atoms: _478  and  _481
REMARK  199  A    between atoms: _484  and  _486
REMARK  200  A    between atoms: _486  and  _487
REMARK  201  A    between atoms: _486  and  _489
REMARK  202  A    between atoms: _489  and  _490
REMARK  203  A    between atoms: _495  and  _497
REMARK  204  A    between atoms: _497  and  _498
REMARK  205  A    between atoms: _497  and  _500
REMARK  206  A    between atoms: _500  and  _501
REMARK  207  A    between atoms: _504  and  _506
REMARK  208  A    between atoms: _506  and  _507
REMARK  209  A    between atoms: _506  and  _509
REMARK  210  A    between atoms: _509  and  _510
REMARK  211  A    between atoms: _513  and  _515
REMARK  212  A    between atoms: _515  and  _516
REMARK  213  A    between atoms: _518  and  _520
REMARK  214  A    between atoms: _520  and  _521
REMARK  215  A    between atoms: _520  and  _523
REMARK  216  A    between atoms: _523  and  _524
REMARK  217  A    between atoms: _524  and  _525
REMARK  218  A    between atoms: _525  and  _526
REMARK  219  A    between atoms: _535  and  _537
REMARK  220  A    between atoms: _537  and  _538
REMARK  221  A    between atoms: _537  and  _540
REMARK  222  A    between atoms: _540  and  _541
REMARK                            x       y       z     vdW  Elec       q    Type
REMARK                         _______ _______ _______ _____ _____    ______ ____
ROOT
ATOM      1  O   HOH     1      17.477  39.792  16.257  0.00  0.00    +0.000 OA
ENDROOT
TORSDOF 0
REMARK  Name = ../refined-set-2016/3mxd/3mxd_pocket.pdb
REMARK  222 active torsions:
REMARK  status: ('A' for Active; 'I' for Inactive)
REMARK    1  A    between atoms: _1  and  _3
REMARK    2  A    between atoms: _3  and  _4
REMARK    3  A    between atoms: _3  and  _6
REMARK    4  A    between atoms: _6  and  _7
REMARK    5  A    between atoms: _7  and  _8
REMARK    6  A    between atoms: _8  and  _9
REMARK    7  A    between atoms: _18  and  _20
REMARK    8  A    between atoms: _20  and  _21
REMARK    9  A    between atoms: _20  and  _23
REMARK   10  A    between atoms: _23  and  _24
REMARK   11  A    between atoms: _27  and  _29
REMARK   12  A    between atoms: _29  and  _30
REMARK   13  A    between atoms: _29  and  _32
REMARK   14  A    between atoms: _32  and  _33
REMARK   15  A    between atoms: _36  and  _38
REMARK   16  A    between atoms: _38  and  _39
REMARK   17  A    between atoms: _38  and  _41
REMARK   18  A    between atoms: _41  and  _42
REMARK   19  A    between atoms: _45  and  _47
REMARK   20  A    between atoms: _47  and  _48
REMARK   21  A    between atoms: _47  and  _50
REMARK   22  A    between atoms: _50  and  _51
REMARK   23  A    between atoms: _54  and  _56
REMARK   24  A    between atoms: _56  and  _57
REMARK   25  A    between atoms: _59  and  _61
REMARK   26  A    between atoms: _61  and  _62
REMARK   27  A    between atoms: _65  and  _67
REMARK   28  A    between atoms: _67  and  _68
REMARK   29  A    between atoms: _67  and  _70
REMARK   30  A    between atoms: _70  and  _71
REMARK   31  A    between atoms: _74  and  _76
REMARK   32  A    between atoms: _76  and  _77
REMARK   33  A    between atoms: _76  and  _79
REMARK   34  A    between atoms: _79  and  _80
REMARK   35  A    between atoms: _83  and  _85
REMARK   36  A    between atoms: _85  and  _86
REMARK   37  A    between atoms: _85  and  _88
REMARK   38  A    between atoms: _88  and  _89
REMARK   39  A    between atoms: _92  and  _94
REMARK   40  A    between atoms: _94  and  _95
REMARK   41  A    between atoms: _94  and  _97
REMARK   42  A    between atoms: _100  and  _102
REMARK   43  A    between atoms: _102  and  _103
REMARK   44  A    between atoms: _102  and  _105
REMARK   45  A    between atoms: _105  and  _106
REMARK   46  A    between atoms: _106  and  _107
REMARK   47  A    between atoms: _109  and  _111
REMARK   48  A    between atoms: _111  and  _112
REMARK   49  A    between atoms: _111  and  _114
REMARK   50  A    between atoms: _114  and  _115
REMARK   51  A    between atoms: _118  and  _120
REMARK   52  A    between atoms: _120  and  _121
REMARK   53  A    between atoms: _123  and  _125
REMARK   54  A    between atoms: _125  and  _126
REMARK   55  A    between atoms: _128  and  _130
REMARK   56  A    between atoms: _130  and  _131
REMARK   57  A    between atoms: _130  and  _133
REMARK   58  A    between atoms: _133  and  _134
REMARK   59  A    between atoms: _137  and  _139
REMARK   60  A    between atoms: _139  and  _140
REMARK   61  A    between atoms: _142  and  _144
REMARK   62  A    between atoms: _144  and  _145
REMARK   63  A    between atoms: _147  and  _149
REMARK   64  A    between atoms: _149  and  _150
REMARK   65  A    between atoms: _149  and  _152
REMARK   66  A    between atoms: _152  and  _153
REMARK   67  A    between atoms: _159  and  _161
REMARK   68  A    between atoms: _161  and  _162
REMARK   69  A    between atoms: _161  and  _164
REMARK   70  A    between atoms: _164  and  _165
REMARK   71  A    between atoms: _168  and  _170
REMARK   72  A    between atoms: _170  and  _171
REMARK   73  A    between atoms: _170  and  _173
REMARK   74  A    between atoms: _176  and  _178
REMARK   75  A    between atoms: _178  and  _179
REMARK   76  A    between atoms: _178  and  _181
REMARK   77  A    between atoms: _181  and  _182
REMARK   78  A    between atoms: _185  and  _187
REMARK   79  A    between atoms: _187  and  _188
REMARK   80  A    between atoms: _187  and  _190
REMARK   81  A    between atoms: _190  and  _191
REMARK   82  A    between atoms: _195  and  _196
REMARK   83  A    between atoms: _201  and  _203
REMARK   84  A    between atoms: _203  and  _204
REMARK   85  A    between atoms: _203  and  _206
REMARK   86  A    between atoms: _209  and  _211
REMARK   87  A    between atoms: _211  and  _212
REMARK   88  A    between atoms: _211  and  _214
REMARK   89  A    between atoms: _214  and  _215
REMARK   90  A    between atoms: _220  and  _222
REMARK   91  A    between atoms: _222  and  _223
REMARK   92  A    between atoms: _222  and  _225
REMARK   93  A    between atoms: _225  and  _226
REMARK   94  A    between atoms: _229  and  _231
REMARK   95  A    between atoms: _231  and  _232
REMARK   96  A    between atoms: _231  and  _234
REMARK   97  A    between atoms: _234  and  _235
REMARK   98  A    between atoms: _238  and  _240
REMARK   99  A    between atoms: _240  and  _241
REMARK  100  A    between atoms: _243  and  _245
REMARK  101  A    between atoms: _245  and  _246
REMARK  102  A    between atoms: _245  and  _248
REMARK  103  A    between atoms: _248  and  _249
REMARK  104  A    between atoms: _249  and  _250
REMARK  105  A    between atoms: _250  and  _251
REMARK  106  A    between atoms: _260  and  _262
REMARK  107  A    between atoms: _262  and  _263
REMARK  108  A    between atoms: _262  and  _265
REMARK  109  A    between atoms: _265  and  _266
REMARK  110  A    between atoms: _271  and  _273
REMARK  111  A    between atoms: _273  and  _274
REMARK  112  A    between atoms: _273  and  _276
REMARK  113  A    between atoms: _276  and  _277
REMARK  114  A    between atoms: _277  and  _278
REMARK  115  A    between atoms: _278  and  _279
REMARK  116  A    between atoms: _288  and  _290
REMARK  117  A    between atoms: _290  and  _291
REMARK  118  A    between atoms: _290  and  _293
REMARK  119  A    between atoms: _293  and  _294
REMARK  120  A    between atoms: _297  and  _299
REMARK  121  A    between atoms: _299  and  _300
REMARK  122  A    between atoms: _299  and  _302
REMARK  123  A    between atoms: _302  and  _303
REMARK  124  A    between atoms: _306  and  _308
REMARK  125  A    between atoms: _308  and  _309
REMARK  126  A    between atoms: _308  and  _311
REMARK  127  A    between atoms: _311  and  _312
REMARK  128  A    between atoms: _315  and  _317
REMARK  129  A    between atoms: _317  and  _318
REMARK  130  A    between atoms: _317  and  _320
REMARK  131  A    between atoms: _320  and  _321
REMARK  132  A    between atoms: _324  and  _326
REMARK  133  A    between atoms: _326  and  _327
REMARK  134  A    between atoms: _329  and  _331
REMARK  135  A    between atoms: _331  and  _332
REMARK  136  A    between atoms: _335  and  _337
REMARK  137  A    between atoms: _337  and  _338
REMARK  138  A    between atoms: _337  and  _340
REMARK  139  A    between atoms: _340  and  _341
REMARK  140  A    between atoms: _344  and  _346
REMARK  141  A    between atoms: _346  and  _347
REMARK  142  A    between atoms: _346  and  _349
REMARK  143  A    between atoms: _349  and  _350
REMARK  144  A    between atoms: _353  and  _355
REMARK  145  A    between atoms: _355  and  _356
REMARK  146  A    between atoms: _355  and  _358
REMARK  147  A    between atoms: _358  and  _359
REMARK  148  A    between atoms: _362  and  _364
REMARK  149  A    between atoms: _364  and  _365
REMARK  150  A    between atoms: _364  and  _367
REMARK  151  A    between atoms: _370  and  _372
REMARK  152  A    between atoms: _372  and  _373
REMARK  153  A    between atoms: _372  and  _375
REMARK  154  A    between atoms: _375  and  _376
REMARK  155  A    between atoms: _376  and  _377
REMARK  156  A    between atoms: _377  and  _378
REMARK  157  A    between atoms: _378  and  _379
REMARK  158  A    between atoms: _383  and  _385
REMARK  159  A    between atoms: _385  and  _386
REMARK  160  A    between atoms: _385  and  _388
REMARK  161  A    between atoms: _388  and  _389
REMARK  162  A    between atoms: _389  and  _390
REMARK  163  A    between atoms: _392  and  _394
REMARK  164  A    between atoms: _394  and  _395
REMARK  165  A    between atoms: _394  and  _397
REMARK  166  A    between atoms: _397  and  _398
REMARK  167  A    between atoms: _401  and  _403
REMARK  168  A    between atoms: _403  and  _404
REMARK  169  A    between atoms: _406  and  _408
REMARK  170  A    between atoms: _408  and  _409
REMARK  171  A    between atoms: _411  and  _413
REMARK  172  A    between atoms: _413  and  _414
REMARK  173  A    between atoms: _413  and  _416
REMARK  174  A    between atoms: _416  and  _417
REMARK  175  A    between atoms: _420  and  _422
REMARK  176  A    between atoms: _422  and  _423
REMARK  177  A    between atoms: _425  and  _427
REMARK  178  A    between atoms: _427  and  _428
REMARK  179  A    between atoms: _430  and  _432
REMARK  180  A    between atoms: _432  and  _433
REMARK  181  A    between atoms: _432  and  _435
REMARK  182  A    between atoms: _435  and  _436
REMARK  183  A    between atoms: _442  and  _444
REMARK  184  A    between atoms: _444  and  _445
REMARK  185  A    between atoms: _444  and  _447
REMARK  186  A    between atoms: _447  and  _448
REMARK  187  A    between atoms: _451  and  _453
REMARK  188  A    between atoms: _453  and  _454
REMARK  189  A    between atoms: _453  and  _456
REMARK  190  A    between atoms: _456  and  _457
REMARK  191  A    between atoms: _460  and  _462
REMARK  192  A    between atoms: _462  and  _463
REMARK  193  A    between atoms: _462  and  _465
REMARK  194  A    between atoms: _465  and  _466
REMARK  195  A    between atoms: _470  and  _471
REMARK  196  A    between atoms: _476  and  _478
REMARK  197  A    between atoms: _478  and  _479
REMARK  198  A    between atoms: _478  and  _481
REMARK  199  A    between atoms: _484  and  _486
REMARK  200  A    between atoms: _486  and  _487
REMARK  201  A    between atoms: _486  and  _489
REMARK  202  A    between atoms: _489  and  _490
REMARK  203  A    between atoms: _495  and  _497
REMARK  204  A    between atoms: _497  and  _498
REMARK  205  A    between atoms: _497  and  _500
REMARK  206  A    between atoms: _500  and  _501
REMARK  207  A    between atoms: _504  and  _506
REMARK  208  A    between atoms: _506  and  _507
REMARK  209  A    between atoms: _506  and  _509
REMARK  210  A    between atoms: _509  and  _510
REMARK  211  A    between atoms: _513  and  _515
REMARK  212  A    between atoms: _515  and  _516
REMARK  213  A    between atoms: _518  and  _520
REMARK  214  A    between atoms: _520  and  _521
REMARK  215  A    between atoms: _520  and  _523
REMARK  216  A    between atoms: _523  and  _524
REMARK  217  A    between atoms: _524  and  _525
REMARK  218  A    between atoms: _525  and  _526
REMARK  219  A    between atoms: _535  and  _537
REMARK  220  A    between atoms: _537  and  _538
REMARK  221  A    between atoms: _537  and  _540
REMARK  222  A    between atoms: _540  and  _541
REMARK                            x       y       z     vdW  Elec       q    Type
REMARK                         _______ _______ _______ _____ _____    ______ ____
ROOT
ATOM      1  O   HOH     1      10.238  36.249  23.356  0.00  0.00    +0.000 OA
ENDROOT
TORSDOF 0
REMARK  Name = ../refined-set-2016/3mxd/3mxd_pocket.pdb
REMARK  222 active torsions:
REMARK  status: ('A' for Active; 'I' for Inactive)
REMARK    1  A    between atoms: _1  and  _3
REMARK    2  A    between atoms: _3  and  _4
REMARK    3  A    between atoms: _3  and  _6
REMARK    4  A    between atoms: _6  and  _7
REMARK    5  A    between atoms: _7  and  _8
REMARK    6  A    between atoms: _8  and  _9
REMARK    7  A    between atoms: _18  and  _20
REMARK    8  A    between atoms: _20  and  _21
REMARK    9  A    between atoms: _20  and  _23
REMARK   10  A    between atoms: _23  and  _24
REMARK   11  A    between atoms: _27  and  _29
REMARK   12  A    between atoms: _29  and  _30
REMARK   13  A    between atoms: _29  and  _32
REMARK   14  A    between atoms: _32  and  _33
REMARK   15  A    between atoms: _36  and  _38
REMARK   16  A    between atoms: _38  and  _39
REMARK   17  A    between atoms: _38  and  _41
REMARK   18  A    between atoms: _41  and  _42
REMARK   19  A    between atoms: _45  and  _47
REMARK   20  A    between atoms: _47  and  _48
REMARK   21  A    between atoms: _47  and  _50
REMARK   22  A    between atoms: _50  and  _51
REMARK   23  A    between atoms: _54  and  _56
REMARK   24  A    between atoms: _56  and  _57
REMARK   25  A    between atoms: _59  and  _61
REMARK   26  A    between atoms: _61  and  _62
REMARK   27  A    between atoms: _65  and  _67
REMARK   28  A    between atoms: _67  and  _68
REMARK   29  A    between atoms: _67  and  _70
REMARK   30  A    between atoms: _70  and  _71
REMARK   31  A    between atoms: _74  and  _76
REMARK   32  A    between atoms: _76  and  _77
REMARK   33  A    between atoms: _76  and  _79
REMARK   34  A    between atoms: _79  and  _80
REMARK   35  A    between atoms: _83  and  _85
REMARK   36  A    between atoms: _85  and  _86
REMARK   37  A    between atoms: _85  and  _88
REMARK   38  A    between atoms: _88  and  _89
REMARK   39  A    between atoms: _92  and  _94
REMARK   40  A    between atoms: _94  and  _95
REMARK   41  A    between atoms: _94  and  _97
REMARK   42  A    between atoms: _100  and  _102
REMARK   43  A    between atoms: _102  and  _103
REMARK   44  A    between atoms: _102  and  _105
REMARK   45  A    between atoms: _105  and  _106
REMARK   46  A    between atoms: _106  and  _107
REMARK   47  A    between atoms: _109  and  _111
REMARK   48  A    between atoms: _111  and  _112
REMARK   49  A    between atoms: _111  and  _114
REMARK   50  A    between atoms: _114  and  _115
REMARK   51  A    between atoms: _118  and  _120
REMARK   52  A    between atoms: _120  and  _121
REMARK   53  A    between atoms: _123  and  _125
REMARK   54  A    between atoms: _125  and  _126
REMARK   55  A    between atoms: _128  and  _130
REMARK   56  A    between atoms: _130  and  _131
REMARK   57  A    between atoms: _130  and  _133
REMARK   58  A    between atoms: _133  and  _134
REMARK   59  A    between atoms: _137  and  _139
REMARK   60  A    between atoms: _139  and  _140
REMARK   61  A    between atoms: _142  and  _144
REMARK   62  A    between atoms: _144  and  _145
REMARK   63  A    between atoms: _147  and  _149
REMARK   64  A    between atoms: _149  and  _150
REMARK   65  A    between atoms: _149  and  _152
REMARK   66  A    between atoms: _152  and  _153
REMARK   67  A    between atoms: _159  and  _161
REMARK   68  A    between atoms: _161  and  _162
REMARK   69  A    between atoms: _161  and  _164
REMARK   70  A    between atoms: _164  and  _165
REMARK   71  A    between atoms: _168  and  _170
REMARK   72  A    between atoms: _170  and  _171
REMARK   73  A    between atoms: _170  and  _173
REMARK   74  A    between atoms: _176  and  _178
REMARK   75  A    between atoms: _178  and  _179
REMARK   76  A    between atoms: _178  and  _181
REMARK   77  A    between atoms: _181  and  _182
REMARK   78  A    between atoms: _185  and  _187
REMARK   79  A    between atoms: _187  and  _188
REMARK   80  A    between atoms: _187  and  _190
REMARK   81  A    between atoms: _190  and  _191
REMARK   82  A    between atoms: _195  and  _196
REMARK   83  A    between atoms: _201  and  _203
REMARK   84  A    between atoms: _203  and  _204
REMARK   85  A    between atoms: _203  and  _206
REMARK   86  A    between atoms: _209  and  _211
REMARK   87  A    between atoms: _211  and  _212
REMARK   88  A    between atoms: _211  and  _214
REMARK   89  A    between atoms: _214  and  _215
REMARK   90  A    between atoms: _220  and  _222
REMARK   91  A    between atoms: _222  and  _223
REMARK   92  A    between atoms: _222  and  _225
REMARK   93  A    between atoms: _225  and  _226
REMARK   94  A    between atoms: _229  and  _231
REMARK   95  A    between atoms: _231  and  _232
REMARK   96  A    between atoms: _231  and  _234
REMARK   97  A    between atoms: _234  and  _235
REMARK   98  A    between atoms: _238  and  _240
REMARK   99  A    between atoms: _240  and  _241
REMARK  100  A    between atoms: _243  and  _245
REMARK  101  A    between atoms: _245  and  _246
REMARK  102  A    between atoms: _245  and  _248
REMARK  103  A    between atoms: _248  and  _249
REMARK  104  A    between atoms: _249  and  _250
REMARK  105  A    between atoms: _250  and  _251
REMARK  106  A    between atoms: _260  and  _262
REMARK  107  A    between atoms: _262  and  _263
REMARK  108  A    between atoms: _262  and  _265
REMARK  109  A    between atoms: _265  and  _266
REMARK  110  A    between atoms: _271  and  _273
REMARK  111  A    between atoms: _273  and  _274
REMARK  112  A    between atoms: _273  and  _276
REMARK  113  A    between atoms: _276  and  _277
REMARK  114  A    between atoms: _277  and  _278
REMARK  115  A    between atoms: _278  and  _279
REMARK  116  A    between atoms: _288  and  _290
REMARK  117  A    between atoms: _290  and  _291
REMARK  118  A    between atoms: _290  and  _293
REMARK  119  A    between atoms: _293  and  _294
REMARK  120  A    between atoms: _297  and  _299
REMARK  121  A    between atoms: _299  and  _300
REMARK  122  A    between atoms: _299  and  _302
REMARK  123  A    between atoms: _302  and  _303
REMARK  124  A    between atoms: _306  and  _308
REMARK  125  A    between atoms: _308  and  _309
REMARK  126  A    between atoms: _308  and  _311
REMARK  127  A    between atoms: _311  and  _312
REMARK  128  A    between atoms: _315  and  _317
REMARK  129  A    between atoms: _317  and  _318
REMARK  130  A    between atoms: _317  and  _320
REMARK  131  A    between atoms: _320  and  _321
REMARK  132  A    between atoms: _324  and  _326
REMARK  133  A    between atoms: _326  and  _327
REMARK  134  A    between atoms: _329  and  _331
REMARK  135  A    between atoms: _331  and  _332
REMARK  136  A    between atoms: _335  and  _337
REMARK  137  A    between atoms: _337  and  _338
REMARK  138  A    between atoms: _337  and  _340
REMARK  139  A    between atoms: _340  and  _341
REMARK  140  A    between atoms: _344  and  _346
REMARK  141  A    between atoms: _346  and  _347
REMARK  142  A    between atoms: _346  and  _349
REMARK  143  A    between atoms: _349  and  _350
REMARK  144  A    between atoms: _353  and  _355
REMARK  145  A    between atoms: _355  and  _356
REMARK  146  A    between atoms: _355  and  _358
REMARK  147  A    between atoms: _358  and  _359
REMARK  148  A    between atoms: _362  and  _364
REMARK  149  A    between atoms: _364  and  _365
REMARK  150  A    between atoms: _364  and  _367
REMARK  151  A    between atoms: _370  and  _372
REMARK  152  A    between atoms: _372  and  _373
REMARK  153  A    between atoms: _372  and  _375
REMARK  154  A    between atoms: _375  and  _376
REMARK  155  A    between atoms: _376  and  _377
REMARK  156  A    between atoms: _377  and  _378
REMARK  157  A    between atoms: _378  and  _379
REMARK  158  A    between atoms: _383  and  _385
REMARK  159  A    between atoms: _385  and  _386
REMARK  160  A    between atoms: _385  and  _388
REMARK  161  A    between atoms: _388  and  _389
REMARK  162  A    between atoms: _389  and  _390
REMARK  163  A    between atoms: _392  and  _394
REMARK  164  A    between atoms: _394  and  _395
REMARK  165  A    between atoms: _394  and  _397
REMARK  166  A    between atoms: _397  and  _398
REMARK  167  A    between atoms: _401  and  _403
REMARK  168  A    between atoms: _403  and  _404
REMARK  169  A    between atoms: _406  and  _408
REMARK  170  A    between atoms: _408  and  _409
REMARK  171  A    between atoms: _411  and  _413
REMARK  172  A    between atoms: _413  and  _414
REMARK  173  A    between atoms: _413  and  _416
REMARK  174  A    between atoms: _416  and  _417
REMARK  175  A    between atoms: _420  and  _422
REMARK  176  A    between atoms: _422  and  _423
REMARK  177  A    between atoms: _425  and  _427
REMARK  178  A    between atoms: _427  and  _428
REMARK  179  A    between atoms: _430  and  _432
REMARK  180  A    between atoms: _432  and  _433
REMARK  181  A    between atoms: _432  and  _435
REMARK  182  A    between atoms: _435  and  _436
REMARK  183  A    between atoms: _442  and  _444
REMARK  184  A    between atoms: _444  and  _445
REMARK  185  A    between atoms: _444  and  _447
REMARK  186  A    between atoms: _447  and  _448
REMARK  187  A    between atoms: _451  and  _453
REMARK  188  A    between atoms: _453  and  _454
REMARK  189  A    between atoms: _453  and  _456
REMARK  190  A    between atoms: _456  and  _457
REMARK  191  A    between atoms: _460  and  _462
REMARK  192  A    between atoms: _462  and  _463
REMARK  193  A    between atoms: _462  and  _465
REMARK  194  A    between atoms: _465  and  _466
REMARK  195  A    between atoms: _470  and  _471
REMARK  196  A    between atoms: _476  and  _478
REMARK  197  A    between atoms: _478  and  _479
REMARK  198  A    between atoms: _478  and  _481
REMARK  199  A    between atoms: _484  and  _486
REMARK  200  A    between atoms: _486  and  _487
REMARK  201  A    between atoms: _486  and  _489
REMARK  202  A    between atoms: _489  and  _490
REMARK  203  A    between atoms: _495  and  _497
REMARK  204  A    between atoms: _497  and  _498
REMARK  205  A    between atoms: _497  and  _500
REMARK  206  A    between atoms: _500  and  _501
REMARK  207  A    between atoms: _504  and  _506
REMARK  208  A    between atoms: _506  and  _507
REMARK  209  A    between atoms: _506  and  _509
REMARK  210  A    between atoms: _509  and  _510
REMARK  211  A    between atoms: _513  and  _515
REMARK  212  A    between atoms: _515  and  _516
REMARK  213  A    between atoms: _518  and  _520
REMARK  214  A    between atoms: _520  and  _521
REMARK  215  A    between atoms: _520  and  _523
REMARK  216  A    between atoms: _523  and  _524
REMARK  217  A    between atoms: _524  and  _525
REMARK  218  A    between atoms: _525  and  _526
REMARK  219  A    between atoms: _535  and  _537
REMARK  220  A    between atoms: _537  and  _538
REMARK  221  A    between atoms: _537  and  _540
REMARK  222  A    between atoms: _540  and  _541
REMARK                            x       y       z     vdW  Elec       q    Type
REMARK                         _______ _______ _______ _____ _____    ______ ____
ROOT
ATOM      1  O   HOH     1      14.445  35.111  26.057  0.00  0.00    +0.000 OA
ENDROOT
TORSDOF 0
REMARK  Name = ../refined-set-2016/3mxd/3mxd_pocket.pdb
REMARK  222 active torsions:
REMARK  status: ('A' for Active; 'I' for Inactive)
REMARK    1  A    between atoms: _1  and  _3
REMARK    2  A    between atoms: _3  and  _4
REMARK    3  A    between atoms: _3  and  _6
REMARK    4  A    between atoms: _6  and  _7
REMARK    5  A    between atoms: _7  and  _8
REMARK    6  A    between atoms: _8  and  _9
REMARK    7  A    between atoms: _18  and  _20
REMARK    8  A    between atoms: _20  and  _21
REMARK    9  A    between atoms: _20  and  _23
REMARK   10  A    between atoms: _23  and  _24
REMARK   11  A    between atoms: _27  and  _29
REMARK   12  A    between atoms: _29  and  _30
REMARK   13  A    between atoms: _29  and  _32
REMARK   14  A    between atoms: _32  and  _33
REMARK   15  A    between atoms: _36  and  _38
REMARK   16  A    between atoms: _38  and  _39
REMARK   17  A    between atoms: _38  and  _41
REMARK   18  A    between atoms: _41  and  _42
REMARK   19  A    between atoms: _45  and  _47
REMARK   20  A    between atoms: _47  and  _48
REMARK   21  A    between atoms: _47  and  _50
REMARK   22  A    between atoms: _50  and  _51
REMARK   23  A    between atoms: _54  and  _56
REMARK   24  A    between atoms: _56  and  _57
REMARK   25  A    between atoms: _59  and  _61
REMARK   26  A    between atoms: _61  and  _62
REMARK   27  A    between atoms: _65  and  _67
REMARK   28  A    between atoms: _67  and  _68
REMARK   29  A    between atoms: _67  and  _70
REMARK   30  A    between atoms: _70  and  _71
REMARK   31  A    between atoms: _74  and  _76
REMARK   32  A    between atoms: _76  and  _77
REMARK   33  A    between atoms: _76  and  _79
REMARK   34  A    between atoms: _79  and  _80
REMARK   35  A    between atoms: _83  and  _85
REMARK   36  A    between atoms: _85  and  _86
REMARK   37  A    between atoms: _85  and  _88
REMARK   38  A    between atoms: _88  and  _89
REMARK   39  A    between atoms: _92  and  _94
REMARK   40  A    between atoms: _94  and  _95
REMARK   41  A    between atoms: _94  and  _97
REMARK   42  A    between atoms: _100  and  _102
REMARK   43  A    between atoms: _102  and  _103
REMARK   44  A    between atoms: _102  and  _105
REMARK   45  A    between atoms: _105  and  _106
REMARK   46  A    between atoms: _106  and  _107
REMARK   47  A    between atoms: _109  and  _111
REMARK   48  A    between atoms: _111  and  _112
REMARK   49  A    between atoms: _111  and  _114
REMARK   50  A    between atoms: _114  and  _115
REMARK   51  A    between atoms: _118  and  _120
REMARK   52  A    between atoms: _120  and  _121
REMARK   53  A    between atoms: _123  and  _125
REMARK   54  A    between atoms: _125  and  _126
REMARK   55  A    between atoms: _128  and  _130
REMARK   56  A    between atoms: _130  and  _131
REMARK   57  A    between atoms: _130  and  _133
REMARK   58  A    between atoms: _133  and  _134
REMARK   59  A    between atoms: _137  and  _139
REMARK   60  A    between atoms: _139  and  _140
REMARK   61  A    between atoms: _142  and  _144
REMARK   62  A    between atoms: _144  and  _145
REMARK   63  A    between atoms: _147  and  _149
REMARK   64  A    between atoms: _149  and  _150
REMARK   65  A    between atoms: _149  and  _152
REMARK   66  A    between atoms: _152  and  _153
REMARK   67  A    between atoms: _159  and  _161
REMARK   68  A    between atoms: _161  and  _162
REMARK   69  A    between atoms: _161  and  _164
REMARK   70  A    between atoms: _164  and  _165
REMARK   71  A    between atoms: _168  and  _170
REMARK   72  A    between atoms: _170  and  _171
REMARK   73  A    between atoms: _170  and  _173
REMARK   74  A    between atoms: _176  and  _178
REMARK   75  A    between atoms: _178  and  _179
REMARK   76  A    between atoms: _178  and  _181
REMARK   77  A    between atoms: _181  and  _182
REMARK   78  A    between atoms: _185  and  _187
REMARK   79  A    between atoms: _187  and  _188
REMARK   80  A    between atoms: _187  and  _190
REMARK   81  A    between atoms: _190  and  _191
REMARK   82  A    between atoms: _195  and  _196
REMARK   83  A    between atoms: _201  and  _203
REMARK   84  A    between atoms: _203  and  _204
REMARK   85  A    between atoms: _203  and  _206
REMARK   86  A    between atoms: _209  and  _211
REMARK   87  A    between atoms: _211  and  _212
REMARK   88  A    between atoms: _211  and  _214
REMARK   89  A    between atoms: _214  and  _215
REMARK   90  A    between atoms: _220  and  _222
REMARK   91  A    between atoms: _222  and  _223
REMARK   92  A    between atoms: _222  and  _225
REMARK   93  A    between atoms: _225  and  _226
REMARK   94  A    between atoms: _229  and  _231
REMARK   95  A    between atoms: _231  and  _232
REMARK   96  A    between atoms: _231  and  _234
REMARK   97  A    between atoms: _234  and  _235
REMARK   98  A    between atoms: _238  and  _240
REMARK   99  A    between atoms: _240  and  _241
REMARK  100  A    between atoms: _243  and  _245
REMARK  101  A    between atoms: _245  and  _246
REMARK  102  A    between atoms: _245  and  _248
REMARK  103  A    between atoms: _248  and  _249
REMARK  104  A    between atoms: _249  and  _250
REMARK  105  A    between atoms: _250  and  _251
REMARK  106  A    between atoms: _260  and  _262
REMARK  107  A    between atoms: _262  and  _263
REMARK  108  A    between atoms: _262  and  _265
REMARK  109  A    between atoms: _265  and  _266
REMARK  110  A    between atoms: _271  and  _273
REMARK  111  A    between atoms: _273  and  _274
REMARK  112  A    between atoms: _273  and  _276
REMARK  113  A    between atoms: _276  and  _277
REMARK  114  A    between atoms: _277  and  _278
REMARK  115  A    between atoms: _278  and  _279
REMARK  116  A    between atoms: _288  and  _290
REMARK  117  A    between atoms: _290  and  _291
REMARK  118  A    between atoms: _290  and  _293
REMARK  119  A    between atoms: _293  and  _294
REMARK  120  A    between atoms: _297  and  _299
REMARK  121  A    between atoms: _299  and  _300
REMARK  122  A    between atoms: _299  and  _302
REMARK  123  A    between atoms: _302  and  _303
REMARK  124  A    between atoms: _306  and  _308
REMARK  125  A    between atoms: _308  and  _309
REMARK  126  A    between atoms: _308  and  _311
REMARK  127  A    between atoms: _311  and  _312
REMARK  128  A    between atoms: _315  and  _317
REMARK  129  A    between atoms: _317  and  _318
REMARK  130  A    between atoms: _317  and  _320
REMARK  131  A    between atoms: _320  and  _321
REMARK  132  A    between atoms: _324  and  _326
REMARK  133  A    between atoms: _326  and  _327
REMARK  134  A    between atoms: _329  and  _331
REMARK  135  A    between atoms: _331  and  _332
REMARK  136  A    between atoms: _335  and  _337
REMARK  137  A    between atoms: _337  and  _338
REMARK  138  A    between atoms: _337  and  _340
REMARK  139  A    between atoms: _340  and  _341
REMARK  140  A    between atoms: _344  and  _346
REMARK  141  A    between atoms: _346  and  _347
REMARK  142  A    between atoms: _346  and  _349
REMARK  143  A    between atoms: _349  and  _350
REMARK  144  A    between atoms: _353  and  _355
REMARK  145  A    between atoms: _355  and  _356
REMARK  146  A    between atoms: _355  and  _358
REMARK  147  A    between atoms: _358  and  _359
REMARK  148  A    between atoms: _362  and  _364
REMARK  149  A    between atoms: _364  and  _365
REMARK  150  A    between atoms: _364  and  _367
REMARK  151  A    between atoms: _370  and  _372
REMARK  152  A    between atoms: _372  and  _373
REMARK  153  A    between atoms: _372  and  _375
REMARK  154  A    between atoms: _375  and  _376
REMARK  155  A    between atoms: _376  and  _377
REMARK  156  A    between atoms: _377  and  _378
REMARK  157  A    between atoms: _378  and  _379
REMARK  158  A    between atoms: _383  and  _385
REMARK  159  A    between atoms: _385  and  _386
REMARK  160  A    between atoms: _385  and  _388
REMARK  161  A    between atoms: _388  and  _389
REMARK  162  A    between atoms: _389  and  _390
REMARK  163  A    between atoms: _392  and  _394
REMARK  164  A    between atoms: _394  and  _395
REMARK  165  A    between atoms: _394  and  _397
REMARK  166  A    between atoms: _397  and  _398
REMARK  167  A    between atoms: _401  and  _403
REMARK  168  A    between atoms: _403  and  _404
REMARK  169  A    between atoms: _406  and  _408
REMARK  170  A    between atoms: _408  and  _409
REMARK  171  A    between atoms: _411  and  _413
REMARK  172  A    between atoms: _413  and  _414
REMARK  173  A    between atoms: _413  and  _416
REMARK  174  A    between atoms: _416  and  _417
REMARK  175  A    between atoms: _420  and  _422
REMARK  176  A    between atoms: _422  and  _423
REMARK  177  A    between atoms: _425  and  _427
REMARK  178  A    between atoms: _427  and  _428
REMARK  179  A    between atoms: _430  and  _432
REMARK  180  A    between atoms: _432  and  _433
REMARK  181  A    between atoms: _432  and  _435
REMARK  182  A    between atoms: _435  and  _436
REMARK  183  A    between atoms: _442  and  _444
REMARK  184  A    between atoms: _444  and  _445
REMARK  185  A    between atoms: _444  and  _447
REMARK  186  A    between atoms: _447  and  _448
REMARK  187  A    between atoms: _451  and  _453
REMARK  188  A    between atoms: _453  and  _454
REMARK  189  A    between atoms: _453  and  _456
REMARK  190  A    between atoms: _456  and  _457
REMARK  191  A    between atoms: _460  and  _462
REMARK  192  A    between atoms: _462  and  _463
REMARK  193  A    between atoms: _462  and  _465
REMARK  194  A    between atoms: _465  and  _466
REMARK  195  A    between atoms: _470  and  _471
REMARK  196  A    between atoms: _476  and  _478
REMARK  197  A    between atoms: _478  and  _479
REMARK  198  A    between atoms: _478  and  _481
REMARK  199  A    between atoms: _484  and  _486
REMARK  200  A    between atoms: _486  and  _487
REMARK  201  A    between atoms: _486  and  _489
REMARK  202  A    between atoms: _489  and  _490
REMARK  203  A    between atoms: _495  and  _497
REMARK  204  A    between atoms: _497  and  _498
REMARK  205  A    between atoms: _497  and  _500
REMARK  206  A    between atoms: _500  and  _501
REMARK  207  A    between atoms: _504  and  _506
REMARK  208  A    between atoms: _506  and  _507
REMARK  209  A    between atoms: _506  and  _509
REMARK  210  A    between atoms: _509  and  _510
REMARK  211  A    between atoms: _513  and  _515
REMARK  212  A    between atoms: _515  and  _516
REMARK  213  A    between atoms: _518  and  _520
REMARK  214  A    between atoms: _520  and  _521
REMARK  215  A    between atoms: _520  and  _523
REMARK  216  A    between atoms: _523  and  _524
REMARK  217  A    between atoms: _524  and  _525
REMARK  218  A    between atoms: _525  and  _526
REMARK  219  A    between atoms: _535  and  _537
REMARK  220  A    between atoms: _537  and  _538
REMARK  221  A    between atoms: _537  and  _540
REMARK  222  A    between atoms: _540  and  _541
REMARK                            x       y       z     vdW  Elec       q    Type
REMARK                         _______ _______ _______ _____ _____    ______ ____
ROOT
ATOM      1  O   HOH     1      21.062  36.628  15.964  0.00  0.00    +0.000 OA
ENDROOT
TORSDOF 0
