REMARK  Name = ../refined-set-2016/3jup/3jup_pocket.pdb
REMARK  167 active torsions:
REMARK  status: ('A' for Active; 'I' for Inactive)
REMARK    1  A    between atoms: _1  and  _3
REMARK    2  A    between atoms: _3  and  _4
REMARK    3  A    between atoms: _3  and  _6
REMARK    4  A    between atoms: _6  and  _7
REMARK    5  A    between atoms: _12  and  _13
REMARK    6  A    between atoms: _15  and  _17
REMARK    7  A    between atoms: _17  and  _18
REMARK    8  A    between atoms: _17  and  _20
REMARK    9  A    between atoms: _20  and  _21
REMARK   10  A    between atoms: _21  and  _22
REMARK   11  A    between atoms: _22  and  _23
REMARK   12  A    between atoms: _32  and  _34
REMARK   13  A    between atoms: _34  and  _35
REMARK   14  A    between atoms: _34  and  _37
REMARK   15  A    between atoms: _37  and  _38
REMARK   16  A    between atoms: _38  and  _39
REMARK   17  A    between atoms: _39  and  _40
REMARK   18  A    between atoms: _49  and  _51
REMARK   19  A    between atoms: _51  and  _52
REMARK   20  A    between atoms: _54  and  _56
REMARK   21  A    between atoms: _56  and  _57
REMARK   22  A    between atoms: _59  and  _61
REMARK   23  A    between atoms: _61  and  _62
REMARK   24  A    between atoms: _61  and  _64
REMARK   25  A    between atoms: _64  and  _65
REMARK   26  A    between atoms: _68  and  _70
REMARK   27  A    between atoms: _70  and  _71
REMARK   28  A    between atoms: _70  and  _73
REMARK   29  A    between atoms: _73  and  _74
REMARK   30  A    between atoms: _84  and  _86
REMARK   31  A    between atoms: _86  and  _87
REMARK   32  A    between atoms: _86  and  _89
REMARK   33  A    between atoms: _89  and  _90
REMARK   34  A    between atoms: _93  and  _95
REMARK   35  A    between atoms: _95  and  _96
REMARK   36  A    between atoms: _95  and  _98
REMARK   37  A    between atoms: _98  and  _99
REMARK   38  A    between atoms: _102  and  _104
REMARK   39  A    between atoms: _104  and  _105
REMARK   40  A    between atoms: _104  and  _107
REMARK   41  A    between atoms: _107  and  _108
REMARK   42  A    between atoms: _112  and  _113
REMARK   43  A    between atoms: _118  and  _120
REMARK   44  A    between atoms: _120  and  _121
REMARK   45  A    between atoms: _120  and  _123
REMARK   46  A    between atoms: _123  and  _124
REMARK   47  A    between atoms: _127  and  _129
REMARK   48  A    between atoms: _129  and  _130
REMARK   49  A    between atoms: _133  and  _135
REMARK   50  A    between atoms: _135  and  _136
REMARK   51  A    between atoms: _135  and  _138
REMARK   52  A    between atoms: _138  and  _139
REMARK   53  A    between atoms: _142  and  _144
REMARK   54  A    between atoms: _144  and  _145
REMARK   55  A    between atoms: _144  and  _147
REMARK   56  A    between atoms: _147  and  _148
REMARK   57  A    between atoms: _151  and  _153
REMARK   58  A    between atoms: _153  and  _154
REMARK   59  A    between atoms: _153  and  _156
REMARK   60  A    between atoms: _156  and  _157
REMARK   61  A    between atoms: _162  and  _164
REMARK   62  A    between atoms: _164  and  _165
REMARK   63  A    between atoms: _168  and  _170
REMARK   64  A    between atoms: _170  and  _171
REMARK   65  A    between atoms: _170  and  _173
REMARK   66  A    between atoms: _173  and  _174
REMARK   67  A    between atoms: _184  and  _186
REMARK   68  A    between atoms: _186  and  _187
REMARK   69  A    between atoms: _186  and  _189
REMARK   70  A    between atoms: _189  and  _190
REMARK   71  A    between atoms: _192  and  _194
REMARK   72  A    between atoms: _194  and  _195
REMARK   73  A    between atoms: _194  and  _197
REMARK   74  A    between atoms: _197  and  _198
REMARK   75  A    between atoms: _201  and  _203
REMARK   76  A    between atoms: _203  and  _204
REMARK   77  A    between atoms: _203  and  _206
REMARK   78  A    between atoms: _208  and  _210
REMARK   79  A    between atoms: _210  and  _211
REMARK   80  A    between atoms: _210  and  _213
REMARK   81  A    between atoms: _213  and  _214
REMARK   82  A    between atoms: _221  and  _222
REMARK   83  A    between atoms: _227  and  _229
REMARK   84  A    between atoms: _229  and  _230
REMARK   85  A    between atoms: _229  and  _232
REMARK   86  A    between atoms: _232  and  _233
REMARK   87  A    between atoms: _243  and  _245
REMARK   88  A    between atoms: _245  and  _246
REMARK   89  A    between atoms: _245  and  _248
REMARK   90  A    between atoms: _251  and  _253
REMARK   91  A    between atoms: _253  and  _254
REMARK   92  A    between atoms: _253  and  _256
REMARK   93  A    between atoms: _256  and  _257
REMARK   94  A    between atoms: _267  and  _269
REMARK   95  A    between atoms: _269  and  _270
REMARK   96  A    between atoms: _272  and  _274
REMARK   97  A    between atoms: _274  and  _275
REMARK   98  A    between atoms: _274  and  _277
REMARK   99  A    between atoms: _277  and  _278
REMARK  100  A    between atoms: _278  and  _279
REMARK  101  A    between atoms: _282  and  _284
REMARK  102  A    between atoms: _284  and  _285
REMARK  103  A    between atoms: _287  and  _289
REMARK  104  A    between atoms: _289  and  _290
REMARK  105  A    between atoms: _293  and  _295
REMARK  106  A    between atoms: _295  and  _296
REMARK  107  A    between atoms: _295  and  _298
REMARK  108  A    between atoms: _298  and  _299
REMARK  109  A    between atoms: _302  and  _304
REMARK  110  A    between atoms: _304  and  _305
REMARK  111  A    between atoms: _304  and  _307
REMARK  112  A    between atoms: _307  and  _308
REMARK  113  A    between atoms: _314  and  _316
REMARK  114  A    between atoms: _316  and  _317
REMARK  115  A    between atoms: _316  and  _319
REMARK  116  A    between atoms: _319  and  _320
REMARK  117  A    between atoms: _325  and  _326
REMARK  118  A    between atoms: _328  and  _330
REMARK  119  A    between atoms: _330  and  _331
REMARK  120  A    between atoms: _330  and  _333
REMARK  121  A    between atoms: _333  and  _334
REMARK  122  A    between atoms: _339  and  _341
REMARK  123  A    between atoms: _341  and  _342
REMARK  124  A    between atoms: _341  and  _344
REMARK  125  A    between atoms: _344  and  _345
REMARK  126  A    between atoms: _351  and  _353
REMARK  127  A    between atoms: _353  and  _354
REMARK  128  A    between atoms: _353  and  _356
REMARK  129  A    between atoms: _356  and  _357
REMARK  130  A    between atoms: _362  and  _364
REMARK  131  A    between atoms: _364  and  _365
REMARK  132  A    between atoms: _364  and  _367
REMARK  133  A    between atoms: _367  and  _368
REMARK  134  A    between atoms: _368  and  _369
REMARK  135  A    between atoms: _374  and  _376
REMARK  136  A    between atoms: _376  and  _377
REMARK  137  A    between atoms: _376  and  _379
REMARK  138  A    between atoms: _379  and  _380
REMARK  139  A    between atoms: _380  and  _381
REMARK  140  A    between atoms: _384  and  _386
REMARK  141  A    between atoms: _386  and  _387
REMARK  142  A    between atoms: _386  and  _389
REMARK  143  A    between atoms: _389  and  _390
REMARK  144  A    between atoms: _390  and  _391
REMARK  145  A    between atoms: _393  and  _395
REMARK  146  A    between atoms: _395  and  _396
REMARK  147  A    between atoms: _395  and  _398
REMARK  148  A    between atoms: _398  and  _399
REMARK  149  A    between atoms: _399  and  _400
REMARK  150  A    between atoms: _405  and  _407
REMARK  151  A    between atoms: _407  and  _408
REMARK  152  A    between atoms: _407  and  _410
REMARK  153  A    between atoms: _410  and  _411
REMARK  154  A    between atoms: _414  and  _416
REMARK  155  A    between atoms: _416  and  _417
REMARK  156  A    between atoms: _416  and  _419
REMARK  157  A    between atoms: _422  and  _424
REMARK  158  A    between atoms: _424  and  _425
REMARK  159  A    between atoms: _424  and  _427
REMARK  160  A    between atoms: _427  and  _428
REMARK  161  A    between atoms: _428  and  _429
REMARK  162  A    between atoms: _429  and  _430
REMARK  163  A    between atoms: _439  and  _441
REMARK  164  A    between atoms: _441  and  _442
REMARK  165  A    between atoms: _441  and  _444
REMARK  166  A    between atoms: _444  and  _445
REMARK  167  A    between atoms: _449  and  _450
REMARK                            x       y       z     vdW  Elec       q    Type
REMARK                         _______ _______ _______ _____ _____    ______ ____
ROOT
ATOM      1  CG  TYR A   1      48.631  -3.399  84.534  0.00  0.00    -0.020 A 
ATOM      2  CD2 TYR A   1      49.516  -2.512  85.179  0.00  0.00    -0.001 A 
ATOM      3  CE2 TYR A   1      49.067  -1.604  86.072  0.00  0.00    +0.036 A 
ATOM      4  CZ  TYR A   1      47.697  -1.491  86.278  0.00  0.00    +0.134 A 
ATOM      5  CE1 TYR A   1      46.793  -2.352  85.666  0.00  0.00    +0.036 A 
ATOM      6  CD1 TYR A   1      47.236  -3.244  84.767  0.00  0.00    -0.001 A 
ENDROOT
BRANCH   4   7
ATOM      7  OH  TYR A   1      47.243  -0.572  87.166  0.00  0.00    -0.506 OA
ATOM      8  HH  TYR A   1      48.005  -0.042  87.509  0.00  0.00    +0.292 HD
ENDBRANCH   4   7
BRANCH   1   9
ATOM      9  CB  TYR A   1      49.157  -4.399  83.546  0.00  0.00    +0.051 C 
BRANCH   9  10
ATOM     10  CA  TYR A   1      49.101  -5.835  84.029  0.00  0.00    +0.137 C 
BRANCH  10  11
ATOM     11  N   TYR A   1      49.721  -6.763  83.050  0.00  0.00    -0.239 NA
ATOM     12  H   TYR A   1      50.129  -6.373  82.177  0.00  0.00    +0.142 HD
ENDBRANCH  10  11
BRANCH  10  13
ATOM     13  C   TYR A   1      47.671  -6.246  84.261  0.00  0.00    +0.224 C 
ATOM     14  O   TYR A   1      47.255  -6.451  85.406  0.00  0.00    -0.287 OA
ENDBRANCH  10  13
ENDBRANCH   9  10
ENDBRANCH   1   9
TORSDOF 5
REMARK  Name = ../refined-set-2016/3jup/3jup_pocket.pdb
REMARK  167 active torsions:
REMARK  status: ('A' for Active; 'I' for Inactive)
REMARK    1  A    between atoms: _1  and  _3
REMARK    2  A    between atoms: _3  and  _4
REMARK    3  A    between atoms: _3  and  _6
REMARK    4  A    between atoms: _6  and  _7
REMARK    5  A    between atoms: _12  and  _13
REMARK    6  A    between atoms: _15  and  _17
REMARK    7  A    between atoms: _17  and  _18
REMARK    8  A    between atoms: _17  and  _20
REMARK    9  A    between atoms: _20  and  _21
REMARK   10  A    between atoms: _21  and  _22
REMARK   11  A    between atoms: _22  and  _23
REMARK   12  A    between atoms: _32  and  _34
REMARK   13  A    between atoms: _34  and  _35
REMARK   14  A    between atoms: _34  and  _37
REMARK   15  A    between atoms: _37  and  _38
REMARK   16  A    between atoms: _38  and  _39
REMARK   17  A    between atoms: _39  and  _40
REMARK   18  A    between atoms: _49  and  _51
REMARK   19  A    between atoms: _51  and  _52
REMARK   20  A    between atoms: _54  and  _56
REMARK   21  A    between atoms: _56  and  _57
REMARK   22  A    between atoms: _59  and  _61
REMARK   23  A    between atoms: _61  and  _62
REMARK   24  A    between atoms: _61  and  _64
REMARK   25  A    between atoms: _64  and  _65
REMARK   26  A    between atoms: _68  and  _70
REMARK   27  A    between atoms: _70  and  _71
REMARK   28  A    between atoms: _70  and  _73
REMARK   29  A    between atoms: _73  and  _74
REMARK   30  A    between atoms: _84  and  _86
REMARK   31  A    between atoms: _86  and  _87
REMARK   32  A    between atoms: _86  and  _89
REMARK   33  A    between atoms: _89  and  _90
REMARK   34  A    between atoms: _93  and  _95
REMARK   35  A    between atoms: _95  and  _96
REMARK   36  A    between atoms: _95  and  _98
REMARK   37  A    between atoms: _98  and  _99
REMARK   38  A    between atoms: _102  and  _104
REMARK   39  A    between atoms: _104  and  _105
REMARK   40  A    between atoms: _104  and  _107
REMARK   41  A    between atoms: _107  and  _108
REMARK   42  A    between atoms: _112  and  _113
REMARK   43  A    between atoms: _118  and  _120
REMARK   44  A    between atoms: _120  and  _121
REMARK   45  A    between atoms: _120  and  _123
REMARK   46  A    between atoms: _123  and  _124
REMARK   47  A    between atoms: _127  and  _129
REMARK   48  A    between atoms: _129  and  _130
REMARK   49  A    between atoms: _133  and  _135
REMARK   50  A    between atoms: _135  and  _136
REMARK   51  A    between atoms: _135  and  _138
REMARK   52  A    between atoms: _138  and  _139
REMARK   53  A    between atoms: _142  and  _144
REMARK   54  A    between atoms: _144  and  _145
REMARK   55  A    between atoms: _144  and  _147
REMARK   56  A    between atoms: _147  and  _148
REMARK   57  A    between atoms: _151  and  _153
REMARK   58  A    between atoms: _153  and  _154
REMARK   59  A    between atoms: _153  and  _156
REMARK   60  A    between atoms: _156  and  _157
REMARK   61  A    between atoms: _162  and  _164
REMARK   62  A    between atoms: _164  and  _165
REMARK   63  A    between atoms: _168  and  _170
REMARK   64  A    between atoms: _170  and  _171
REMARK   65  A    between atoms: _170  and  _173
REMARK   66  A    between atoms: _173  and  _174
REMARK   67  A    between atoms: _184  and  _186
REMARK   68  A    between atoms: _186  and  _187
REMARK   69  A    between atoms: _186  and  _189
REMARK   70  A    between atoms: _189  and  _190
REMARK   71  A    between atoms: _192  and  _194
REMARK   72  A    between atoms: _194  and  _195
REMARK   73  A    between atoms: _194  and  _197
REMARK   74  A    between atoms: _197  and  _198
REMARK   75  A    between atoms: _201  and  _203
REMARK   76  A    between atoms: _203  and  _204
REMARK   77  A    between atoms: _203  and  _206
REMARK   78  A    between atoms: _208  and  _210
REMARK   79  A    between atoms: _210  and  _211
REMARK   80  A    between atoms: _210  and  _213
REMARK   81  A    between atoms: _213  and  _214
REMARK   82  A    between atoms: _221  and  _222
REMARK   83  A    between atoms: _227  and  _229
REMARK   84  A    between atoms: _229  and  _230
REMARK   85  A    between atoms: _229  and  _232
REMARK   86  A    between atoms: _232  and  _233
REMARK   87  A    between atoms: _243  and  _245
REMARK   88  A    between atoms: _245  and  _246
REMARK   89  A    between atoms: _245  and  _248
REMARK   90  A    between atoms: _251  and  _253
REMARK   91  A    between atoms: _253  and  _254
REMARK   92  A    between atoms: _253  and  _256
REMARK   93  A    between atoms: _256  and  _257
REMARK   94  A    between atoms: _267  and  _269
REMARK   95  A    between atoms: _269  and  _270
REMARK   96  A    between atoms: _272  and  _274
REMARK   97  A    between atoms: _274  and  _275
REMARK   98  A    between atoms: _274  and  _277
REMARK   99  A    between atoms: _277  and  _278
REMARK  100  A    between atoms: _278  and  _279
REMARK  101  A    between atoms: _282  and  _284
REMARK  102  A    between atoms: _284  and  _285
REMARK  103  A    between atoms: _287  and  _289
REMARK  104  A    between atoms: _289  and  _290
REMARK  105  A    between atoms: _293  and  _295
REMARK  106  A    between atoms: _295  and  _296
REMARK  107  A    between atoms: _295  and  _298
REMARK  108  A    between atoms: _298  and  _299
REMARK  109  A    between atoms: _302  and  _304
REMARK  110  A    between atoms: _304  and  _305
REMARK  111  A    between atoms: _304  and  _307
REMARK  112  A    between atoms: _307  and  _308
REMARK  113  A    between atoms: _314  and  _316
REMARK  114  A    between atoms: _316  and  _317
REMARK  115  A    between atoms: _316  and  _319
REMARK  116  A    between atoms: _319  and  _320
REMARK  117  A    between atoms: _325  and  _326
REMARK  118  A    between atoms: _328  and  _330
REMARK  119  A    between atoms: _330  and  _331
REMARK  120  A    between atoms: _330  and  _333
REMARK  121  A    between atoms: _333  and  _334
REMARK  122  A    between atoms: _339  and  _341
REMARK  123  A    between atoms: _341  and  _342
REMARK  124  A    between atoms: _341  and  _344
REMARK  125  A    between atoms: _344  and  _345
REMARK  126  A    between atoms: _351  and  _353
REMARK  127  A    between atoms: _353  and  _354
REMARK  128  A    between atoms: _353  and  _356
REMARK  129  A    between atoms: _356  and  _357
REMARK  130  A    between atoms: _362  and  _364
REMARK  131  A    between atoms: _364  and  _365
REMARK  132  A    between atoms: _364  and  _367
REMARK  133  A    between atoms: _367  and  _368
REMARK  134  A    between atoms: _368  and  _369
REMARK  135  A    between atoms: _374  and  _376
REMARK  136  A    between atoms: _376  and  _377
REMARK  137  A    between atoms: _376  and  _379
REMARK  138  A    between atoms: _379  and  _380
REMARK  139  A    between atoms: _380  and  _381
REMARK  140  A    between atoms: _384  and  _386
REMARK  141  A    between atoms: _386  and  _387
REMARK  142  A    between atoms: _386  and  _389
REMARK  143  A    between atoms: _389  and  _390
REMARK  144  A    between atoms: _390  and  _391
REMARK  145  A    between atoms: _393  and  _395
REMARK  146  A    between atoms: _395  and  _396
REMARK  147  A    between atoms: _395  and  _398
REMARK  148  A    between atoms: _398  and  _399
REMARK  149  A    between atoms: _399  and  _400
REMARK  150  A    between atoms: _405  and  _407
REMARK  151  A    between atoms: _407  and  _408
REMARK  152  A    between atoms: _407  and  _410
REMARK  153  A    between atoms: _410  and  _411
REMARK  154  A    between atoms: _414  and  _416
REMARK  155  A    between atoms: _416  and  _417
REMARK  156  A    between atoms: _416  and  _419
REMARK  157  A    between atoms: _422  and  _424
REMARK  158  A    between atoms: _424  and  _425
REMARK  159  A    between atoms: _424  and  _427
REMARK  160  A    between atoms: _427  and  _428
REMARK  161  A    between atoms: _428  and  _429
REMARK  162  A    between atoms: _429  and  _430
REMARK  163  A    between atoms: _439  and  _441
REMARK  164  A    between atoms: _441  and  _442
REMARK  165  A    between atoms: _441  and  _444
REMARK  166  A    between atoms: _444  and  _445
REMARK  167  A    between atoms: _449  and  _450
REMARK                            x       y       z     vdW  Elec       q    Type
REMARK                         _______ _______ _______ _____ _____    ______ ____
ROOT
ATOM      1  NE  ARG A   1      45.257  -6.498  93.648  0.00  0.00    -0.265 N 
ATOM      2  CZ  ARG A   1      44.182  -6.454  94.418  0.00  0.00    +0.342 C 
ATOM      3  NH2 ARG A   1      43.859  -5.280  94.951  0.00  0.00    -0.292 N 
ATOM      4 HH21 ARG A   1      43.022  -5.199  95.563  0.00  0.00    +0.255 HD
ATOM      5 HH22 ARG A   1      44.443  -4.442  94.756  0.00  0.00    +0.255 HD
ATOM      6  NH1 ARG A   1      43.449  -7.544  94.664  0.00  0.00    -0.292 N 
ATOM      7 HH11 ARG A   1      42.609  -7.479  95.273  0.00  0.00    +0.255 HD
ATOM      8 HH12 ARG A   1      43.719  -8.457  94.246  0.00  0.00    +0.255 HD
ATOM      9  HE  ARG A   1      45.766  -5.604  93.499  0.00  0.00    +0.259 HD
ENDROOT
BRANCH   1  10
ATOM     10  CD  ARG A   1      45.783  -7.655  93.003  0.00  0.00    +0.174 C 
BRANCH  10  11
ATOM     11  CG  ARG A   1      47.112  -7.368  92.302  0.00  0.00    +0.045 C 
BRANCH  11  12
ATOM     12  CB  ARG A   1      48.197  -6.947  93.294  0.00  0.00    +0.029 C 
BRANCH  12  13
ATOM     13  CA  ARG A   1      49.614  -7.309  92.801  0.00  0.00    +0.133 C 
BRANCH  13  14
ATOM     14  N   ARG A   1      49.832  -8.770  92.831  0.00  0.00    -0.239 NA
ATOM     15  H   ARG A   1      49.130  -9.395  93.276  0.00  0.00    +0.142 HD
ENDBRANCH  13  14
BRANCH  13  16
ATOM     16  C   ARG A   1      50.643  -6.488  93.585  0.00  0.00    +0.224 C 
ATOM     17  O   ARG A   1      50.868  -5.301  93.261  0.00  0.00    -0.287 OA
ENDBRANCH  13  16
ENDBRANCH  12  13
ENDBRANCH  11  12
ENDBRANCH  10  11
ENDBRANCH   1  10
TORSDOF 6
REMARK  Name = ../refined-set-2016/3jup/3jup_pocket.pdb
REMARK  167 active torsions:
REMARK  status: ('A' for Active; 'I' for Inactive)
REMARK    1  A    between atoms: _1  and  _3
REMARK    2  A    between atoms: _3  and  _4
REMARK    3  A    between atoms: _3  and  _6
REMARK    4  A    between atoms: _6  and  _7
REMARK    5  A    between atoms: _12  and  _13
REMARK    6  A    between atoms: _15  and  _17
REMARK    7  A    between atoms: _17  and  _18
REMARK    8  A    between atoms: _17  and  _20
REMARK    9  A    between atoms: _20  and  _21
REMARK   10  A    between atoms: _21  and  _22
REMARK   11  A    between atoms: _22  and  _23
REMARK   12  A    between atoms: _32  and  _34
REMARK   13  A    between atoms: _34  and  _35
REMARK   14  A    between atoms: _34  and  _37
REMARK   15  A    between atoms: _37  and  _38
REMARK   16  A    between atoms: _38  and  _39
REMARK   17  A    between atoms: _39  and  _40
REMARK   18  A    between atoms: _49  and  _51
REMARK   19  A    between atoms: _51  and  _52
REMARK   20  A    between atoms: _54  and  _56
REMARK   21  A    between atoms: _56  and  _57
REMARK   22  A    between atoms: _59  and  _61
REMARK   23  A    between atoms: _61  and  _62
REMARK   24  A    between atoms: _61  and  _64
REMARK   25  A    between atoms: _64  and  _65
REMARK   26  A    between atoms: _68  and  _70
REMARK   27  A    between atoms: _70  and  _71
REMARK   28  A    between atoms: _70  and  _73
REMARK   29  A    between atoms: _73  and  _74
REMARK   30  A    between atoms: _84  and  _86
REMARK   31  A    between atoms: _86  and  _87
REMARK   32  A    between atoms: _86  and  _89
REMARK   33  A    between atoms: _89  and  _90
REMARK   34  A    between atoms: _93  and  _95
REMARK   35  A    between atoms: _95  and  _96
REMARK   36  A    between atoms: _95  and  _98
REMARK   37  A    between atoms: _98  and  _99
REMARK   38  A    between atoms: _102  and  _104
REMARK   39  A    between atoms: _104  and  _105
REMARK   40  A    between atoms: _104  and  _107
REMARK   41  A    between atoms: _107  and  _108
REMARK   42  A    between atoms: _112  and  _113
REMARK   43  A    between atoms: _118  and  _120
REMARK   44  A    between atoms: _120  and  _121
REMARK   45  A    between atoms: _120  and  _123
REMARK   46  A    between atoms: _123  and  _124
REMARK   47  A    between atoms: _127  and  _129
REMARK   48  A    between atoms: _129  and  _130
REMARK   49  A    between atoms: _133  and  _135
REMARK   50  A    between atoms: _135  and  _136
REMARK   51  A    between atoms: _135  and  _138
REMARK   52  A    between atoms: _138  and  _139
REMARK   53  A    between atoms: _142  and  _144
REMARK   54  A    between atoms: _144  and  _145
REMARK   55  A    between atoms: _144  and  _147
REMARK   56  A    between atoms: _147  and  _148
REMARK   57  A    between atoms: _151  and  _153
REMARK   58  A    between atoms: _153  and  _154
REMARK   59  A    between atoms: _153  and  _156
REMARK   60  A    between atoms: _156  and  _157
REMARK   61  A    between atoms: _162  and  _164
REMARK   62  A    between atoms: _164  and  _165
REMARK   63  A    between atoms: _168  and  _170
REMARK   64  A    between atoms: _170  and  _171
REMARK   65  A    between atoms: _170  and  _173
REMARK   66  A    between atoms: _173  and  _174
REMARK   67  A    between atoms: _184  and  _186
REMARK   68  A    between atoms: _186  and  _187
REMARK   69  A    between atoms: _186  and  _189
REMARK   70  A    between atoms: _189  and  _190
REMARK   71  A    between atoms: _192  and  _194
REMARK   72  A    between atoms: _194  and  _195
REMARK   73  A    between atoms: _194  and  _197
REMARK   74  A    between atoms: _197  and  _198
REMARK   75  A    between atoms: _201  and  _203
REMARK   76  A    between atoms: _203  and  _204
REMARK   77  A    between atoms: _203  and  _206
REMARK   78  A    between atoms: _208  and  _210
REMARK   79  A    between atoms: _210  and  _211
REMARK   80  A    between atoms: _210  and  _213
REMARK   81  A    between atoms: _213  and  _214
REMARK   82  A    between atoms: _221  and  _222
REMARK   83  A    between atoms: _227  and  _229
REMARK   84  A    between atoms: _229  and  _230
REMARK   85  A    between atoms: _229  and  _232
REMARK   86  A    between atoms: _232  and  _233
REMARK   87  A    between atoms: _243  and  _245
REMARK   88  A    between atoms: _245  and  _246
REMARK   89  A    between atoms: _245  and  _248
REMARK   90  A    between atoms: _251  and  _253
REMARK   91  A    between atoms: _253  and  _254
REMARK   92  A    between atoms: _253  and  _256
REMARK   93  A    between atoms: _256  and  _257
REMARK   94  A    between atoms: _267  and  _269
REMARK   95  A    between atoms: _269  and  _270
REMARK   96  A    between atoms: _272  and  _274
REMARK   97  A    between atoms: _274  and  _275
REMARK   98  A    between atoms: _274  and  _277
REMARK   99  A    between atoms: _277  and  _278
REMARK  100  A    between atoms: _278  and  _279
REMARK  101  A    between atoms: _282  and  _284
REMARK  102  A    between atoms: _284  and  _285
REMARK  103  A    between atoms: _287  and  _289
REMARK  104  A    between atoms: _289  and  _290
REMARK  105  A    between atoms: _293  and  _295
REMARK  106  A    between atoms: _295  and  _296
REMARK  107  A    between atoms: _295  and  _298
REMARK  108  A    between atoms: _298  and  _299
REMARK  109  A    between atoms: _302  and  _304
REMARK  110  A    between atoms: _304  and  _305
REMARK  111  A    between atoms: _304  and  _307
REMARK  112  A    between atoms: _307  and  _308
REMARK  113  A    between atoms: _314  and  _316
REMARK  114  A    between atoms: _316  and  _317
REMARK  115  A    between atoms: _316  and  _319
REMARK  116  A    between atoms: _319  and  _320
REMARK  117  A    between atoms: _325  and  _326
REMARK  118  A    between atoms: _328  and  _330
REMARK  119  A    between atoms: _330  and  _331
REMARK  120  A    between atoms: _330  and  _333
REMARK  121  A    between atoms: _333  and  _334
REMARK  122  A    between atoms: _339  and  _341
REMARK  123  A    between atoms: _341  and  _342
REMARK  124  A    between atoms: _341  and  _344
REMARK  125  A    between atoms: _344  and  _345
REMARK  126  A    between atoms: _351  and  _353
REMARK  127  A    between atoms: _353  and  _354
REMARK  128  A    between atoms: _353  and  _356
REMARK  129  A    between atoms: _356  and  _357
REMARK  130  A    between atoms: _362  and  _364
REMARK  131  A    between atoms: _364  and  _365
REMARK  132  A    between atoms: _364  and  _367
REMARK  133  A    between atoms: _367  and  _368
REMARK  134  A    between atoms: _368  and  _369
REMARK  135  A    between atoms: _374  and  _376
REMARK  136  A    between atoms: _376  and  _377
REMARK  137  A    between atoms: _376  and  _379
REMARK  138  A    between atoms: _379  and  _380
REMARK  139  A    between atoms: _380  and  _381
REMARK  140  A    between atoms: _384  and  _386
REMARK  141  A    between atoms: _386  and  _387
REMARK  142  A    between atoms: _386  and  _389
REMARK  143  A    between atoms: _389  and  _390
REMARK  144  A    between atoms: _390  and  _391
REMARK  145  A    between atoms: _393  and  _395
REMARK  146  A    between atoms: _395  and  _396
REMARK  147  A    between atoms: _395  and  _398
REMARK  148  A    between atoms: _398  and  _399
REMARK  149  A    between atoms: _399  and  _400
REMARK  150  A    between atoms: _405  and  _407
REMARK  151  A    between atoms: _407  and  _408
REMARK  152  A    between atoms: _407  and  _410
REMARK  153  A    between atoms: _410  and  _411
REMARK  154  A    between atoms: _414  and  _416
REMARK  155  A    between atoms: _416  and  _417
REMARK  156  A    between atoms: _416  and  _419
REMARK  157  A    between atoms: _422  and  _424
REMARK  158  A    between atoms: _424  and  _425
REMARK  159  A    between atoms: _424  and  _427
REMARK  160  A    between atoms: _427  and  _428
REMARK  161  A    between atoms: _428  and  _429
REMARK  162  A    between atoms: _429  and  _430
REMARK  163  A    between atoms: _439  and  _441
REMARK  164  A    between atoms: _441  and  _442
REMARK  165  A    between atoms: _441  and  _444
REMARK  166  A    between atoms: _444  and  _445
REMARK  167  A    between atoms: _449  and  _450
REMARK                            x       y       z     vdW  Elec       q    Type
REMARK                         _______ _______ _______ _____ _____    ______ ____
ROOT
ATOM      1  NE  ARG A   1      48.886  -3.158  89.040  0.00  0.00    -0.265 N 
ATOM      2  CZ  ARG A   1      47.707  -2.897  89.582  0.00  0.00    +0.342 C 
ATOM      3  NH2 ARG A   1      47.545  -1.769  90.284  0.00  0.00    -0.292 N 
ATOM      4 HH21 ARG A   1      46.624  -1.552  90.715  0.00  0.00    +0.255 HD
ATOM      5 HH22 ARG A   1      48.341  -1.109  90.399  0.00  0.00    +0.255 HD
ATOM      6  NH1 ARG A   1      46.690  -3.735  89.449  0.00  0.00    -0.292 N 
ATOM      7 HH11 ARG A   1      45.772  -3.511  89.883  0.00  0.00    +0.255 HD
ATOM      8 HH12 ARG A   1      46.810  -4.617  88.911  0.00  0.00    +0.255 HD
ATOM      9  HE  ARG A   1      49.633  -2.447  89.176  0.00  0.00    +0.259 HD
ENDROOT
BRANCH   1  10
ATOM     10  CD  ARG A   1      49.236  -4.335  88.277  0.00  0.00    +0.174 C 
BRANCH  10  11
ATOM     11  CG  ARG A   1      50.719  -4.496  88.209  0.00  0.00    +0.045 C 
BRANCH  11  12
ATOM     12  CB  ARG A   1      51.357  -4.879  89.559  0.00  0.00    +0.029 C 
BRANCH  12  13
ATOM     13  CA  ARG A   1      52.877  -4.997  89.595  0.00  0.00    +0.133 C 
BRANCH  13  14
ATOM     14  N   ARG A   1      53.266  -5.522  90.908  0.00  0.00    -0.239 NA
ATOM     15  H   ARG A   1      52.564  -5.567  91.674  0.00  0.00    +0.142 HD
ENDBRANCH  13  14
BRANCH  13  16
ATOM     16  C   ARG A   1      53.578  -3.619  89.390  0.00  0.00    +0.224 C 
ATOM     17  O   ARG A   1      53.791  -3.167  88.248  0.00  0.00    -0.287 OA
ENDBRANCH  13  16
ENDBRANCH  12  13
ENDBRANCH  11  12
ENDBRANCH  10  11
ENDBRANCH   1  10
TORSDOF 6
REMARK  Name = ../refined-set-2016/3jup/3jup_pocket.pdb
REMARK  167 active torsions:
REMARK  status: ('A' for Active; 'I' for Inactive)
REMARK    1  A    between atoms: _1  and  _3
REMARK    2  A    between atoms: _3  and  _4
REMARK    3  A    between atoms: _3  and  _6
REMARK    4  A    between atoms: _6  and  _7
REMARK    5  A    between atoms: _12  and  _13
REMARK    6  A    between atoms: _15  and  _17
REMARK    7  A    between atoms: _17  and  _18
REMARK    8  A    between atoms: _17  and  _20
REMARK    9  A    between atoms: _20  and  _21
REMARK   10  A    between atoms: _21  and  _22
REMARK   11  A    between atoms: _22  and  _23
REMARK   12  A    between atoms: _32  and  _34
REMARK   13  A    between atoms: _34  and  _35
REMARK   14  A    between atoms: _34  and  _37
REMARK   15  A    between atoms: _37  and  _38
REMARK   16  A    between atoms: _38  and  _39
REMARK   17  A    between atoms: _39  and  _40
REMARK   18  A    between atoms: _49  and  _51
REMARK   19  A    between atoms: _51  and  _52
REMARK   20  A    between atoms: _54  and  _56
REMARK   21  A    between atoms: _56  and  _57
REMARK   22  A    between atoms: _59  and  _61
REMARK   23  A    between atoms: _61  and  _62
REMARK   24  A    between atoms: _61  and  _64
REMARK   25  A    between atoms: _64  and  _65
REMARK   26  A    between atoms: _68  and  _70
REMARK   27  A    between atoms: _70  and  _71
REMARK   28  A    between atoms: _70  and  _73
REMARK   29  A    between atoms: _73  and  _74
REMARK   30  A    between atoms: _84  and  _86
REMARK   31  A    between atoms: _86  and  _87
REMARK   32  A    between atoms: _86  and  _89
REMARK   33  A    between atoms: _89  and  _90
REMARK   34  A    between atoms: _93  and  _95
REMARK   35  A    between atoms: _95  and  _96
REMARK   36  A    between atoms: _95  and  _98
REMARK   37  A    between atoms: _98  and  _99
REMARK   38  A    between atoms: _102  and  _104
REMARK   39  A    between atoms: _104  and  _105
REMARK   40  A    between atoms: _104  and  _107
REMARK   41  A    between atoms: _107  and  _108
REMARK   42  A    between atoms: _112  and  _113
REMARK   43  A    between atoms: _118  and  _120
REMARK   44  A    between atoms: _120  and  _121
REMARK   45  A    between atoms: _120  and  _123
REMARK   46  A    between atoms: _123  and  _124
REMARK   47  A    between atoms: _127  and  _129
REMARK   48  A    between atoms: _129  and  _130
REMARK   49  A    between atoms: _133  and  _135
REMARK   50  A    between atoms: _135  and  _136
REMARK   51  A    between atoms: _135  and  _138
REMARK   52  A    between atoms: _138  and  _139
REMARK   53  A    between atoms: _142  and  _144
REMARK   54  A    between atoms: _144  and  _145
REMARK   55  A    between atoms: _144  and  _147
REMARK   56  A    between atoms: _147  and  _148
REMARK   57  A    between atoms: _151  and  _153
REMARK   58  A    between atoms: _153  and  _154
REMARK   59  A    between atoms: _153  and  _156
REMARK   60  A    between atoms: _156  and  _157
REMARK   61  A    between atoms: _162  and  _164
REMARK   62  A    between atoms: _164  and  _165
REMARK   63  A    between atoms: _168  and  _170
REMARK   64  A    between atoms: _170  and  _171
REMARK   65  A    between atoms: _170  and  _173
REMARK   66  A    between atoms: _173  and  _174
REMARK   67  A    between atoms: _184  and  _186
REMARK   68  A    between atoms: _186  and  _187
REMARK   69  A    between atoms: _186  and  _189
REMARK   70  A    between atoms: _189  and  _190
REMARK   71  A    between atoms: _192  and  _194
REMARK   72  A    between atoms: _194  and  _195
REMARK   73  A    between atoms: _194  and  _197
REMARK   74  A    between atoms: _197  and  _198
REMARK   75  A    between atoms: _201  and  _203
REMARK   76  A    between atoms: _203  and  _204
REMARK   77  A    between atoms: _203  and  _206
REMARK   78  A    between atoms: _208  and  _210
REMARK   79  A    between atoms: _210  and  _211
REMARK   80  A    between atoms: _210  and  _213
REMARK   81  A    between atoms: _213  and  _214
REMARK   82  A    between atoms: _221  and  _222
REMARK   83  A    between atoms: _227  and  _229
REMARK   84  A    between atoms: _229  and  _230
REMARK   85  A    between atoms: _229  and  _232
REMARK   86  A    between atoms: _232  and  _233
REMARK   87  A    between atoms: _243  and  _245
REMARK   88  A    between atoms: _245  and  _246
REMARK   89  A    between atoms: _245  and  _248
REMARK   90  A    between atoms: _251  and  _253
REMARK   91  A    between atoms: _253  and  _254
REMARK   92  A    between atoms: _253  and  _256
REMARK   93  A    between atoms: _256  and  _257
REMARK   94  A    between atoms: _267  and  _269
REMARK   95  A    between atoms: _269  and  _270
REMARK   96  A    between atoms: _272  and  _274
REMARK   97  A    between atoms: _274  and  _275
REMARK   98  A    between atoms: _274  and  _277
REMARK   99  A    between atoms: _277  and  _278
REMARK  100  A    between atoms: _278  and  _279
REMARK  101  A    between atoms: _282  and  _284
REMARK  102  A    between atoms: _284  and  _285
REMARK  103  A    between atoms: _287  and  _289
REMARK  104  A    between atoms: _289  and  _290
REMARK  105  A    between atoms: _293  and  _295
REMARK  106  A    between atoms: _295  and  _296
REMARK  107  A    between atoms: _295  and  _298
REMARK  108  A    between atoms: _298  and  _299
REMARK  109  A    between atoms: _302  and  _304
REMARK  110  A    between atoms: _304  and  _305
REMARK  111  A    between atoms: _304  and  _307
REMARK  112  A    between atoms: _307  and  _308
REMARK  113  A    between atoms: _314  and  _316
REMARK  114  A    between atoms: _316  and  _317
REMARK  115  A    between atoms: _316  and  _319
REMARK  116  A    between atoms: _319  and  _320
REMARK  117  A    between atoms: _325  and  _326
REMARK  118  A    between atoms: _328  and  _330
REMARK  119  A    between atoms: _330  and  _331
REMARK  120  A    between atoms: _330  and  _333
REMARK  121  A    between atoms: _333  and  _334
REMARK  122  A    between atoms: _339  and  _341
REMARK  123  A    between atoms: _341  and  _342
REMARK  124  A    between atoms: _341  and  _344
REMARK  125  A    between atoms: _344  and  _345
REMARK  126  A    between atoms: _351  and  _353
REMARK  127  A    between atoms: _353  and  _354
REMARK  128  A    between atoms: _353  and  _356
REMARK  129  A    between atoms: _356  and  _357
REMARK  130  A    between atoms: _362  and  _364
REMARK  131  A    between atoms: _364  and  _365
REMARK  132  A    between atoms: _364  and  _367
REMARK  133  A    between atoms: _367  and  _368
REMARK  134  A    between atoms: _368  and  _369
REMARK  135  A    between atoms: _374  and  _376
REMARK  136  A    between atoms: _376  and  _377
REMARK  137  A    between atoms: _376  and  _379
REMARK  138  A    between atoms: _379  and  _380
REMARK  139  A    between atoms: _380  and  _381
REMARK  140  A    between atoms: _384  and  _386
REMARK  141  A    between atoms: _386  and  _387
REMARK  142  A    between atoms: _386  and  _389
REMARK  143  A    between atoms: _389  and  _390
REMARK  144  A    between atoms: _390  and  _391
REMARK  145  A    between atoms: _393  and  _395
REMARK  146  A    between atoms: _395  and  _396
REMARK  147  A    between atoms: _395  and  _398
REMARK  148  A    between atoms: _398  and  _399
REMARK  149  A    between atoms: _399  and  _400
REMARK  150  A    between atoms: _405  and  _407
REMARK  151  A    between atoms: _407  and  _408
REMARK  152  A    between atoms: _407  and  _410
REMARK  153  A    between atoms: _410  and  _411
REMARK  154  A    between atoms: _414  and  _416
REMARK  155  A    between atoms: _416  and  _417
REMARK  156  A    between atoms: _416  and  _419
REMARK  157  A    between atoms: _422  and  _424
REMARK  158  A    between atoms: _424  and  _425
REMARK  159  A    between atoms: _424  and  _427
REMARK  160  A    between atoms: _427  and  _428
REMARK  161  A    between atoms: _428  and  _429
REMARK  162  A    between atoms: _429  and  _430
REMARK  163  A    between atoms: _439  and  _441
REMARK  164  A    between atoms: _441  and  _442
REMARK  165  A    between atoms: _441  and  _444
REMARK  166  A    between atoms: _444  and  _445
REMARK  167  A    between atoms: _449  and  _450
REMARK                            x       y       z     vdW  Elec       q    Type
REMARK                         _______ _______ _______ _____ _____    ______ ____
ROOT
ATOM      1  CA  TRP A   4      41.459   9.858  87.032  0.00  0.00    +0.153 C 
ENDROOT
BRANCH   1   2
ATOM      2  C   TRP A   4      40.006  10.290  87.160  0.00  0.00    +0.241 C 
ATOM      3  N   THR A   5      39.111   9.420  87.659  0.00  0.00    -0.295 N 
ATOM      4  H   THR A   5      39.432   8.480  87.966  0.00  0.00    +0.150 HD
ATOM      5  O   TRP A   4      39.697  11.366  86.761  0.00  0.00    -0.273 OA
BRANCH   3   6
ATOM      6  CA  THR A   5      37.683   9.770  87.780  0.00  0.00    +0.176 C 
BRANCH   6   7
ATOM      7  C   THR A   5      37.303   9.627  89.245  0.00  0.00    +0.243 C 
ATOM      8  N   THR A   6      37.259  10.744  89.954  0.00  0.00    -0.295 N 
ATOM      9  H   THR A   6      37.416  11.657  89.481  0.00  0.00    +0.150 HD
ATOM     10  O   THR A   5      37.065   8.508  89.745  0.00  0.00    -0.273 OA
BRANCH   8  11
ATOM     11  CA  THR A   6      36.992  10.714  91.397  0.00  0.00    +0.176 C 
BRANCH  11  12
ATOM     12  C   THR A   6      35.816  11.640  91.730  0.00  0.00    +0.243 C 
ATOM     13  N   ASP A   7      35.290  11.497  92.927  0.00  0.00    -0.297 N 
ATOM     14  H   ASP A   7      35.618  10.747  93.568  0.00  0.00    +0.150 HD
ATOM     15  O   THR A   6      35.473  12.538  90.989  0.00  0.00    -0.273 OA
BRANCH  13  16
ATOM     16  CA  ASP A   7      34.227  12.426  93.333  0.00  0.00    +0.148 C 
BRANCH  16  17
ATOM     17  C   ASP A   7      34.704  13.859  93.485  0.00  0.00    +0.227 C 
ATOM     18  O   ASP A   7      33.935  14.796  93.317  0.00  0.00    -0.286 OA
ENDBRANCH  16  17
BRANCH  16  19
ATOM     19  CB  ASP A   7      33.501  11.889  94.560  0.00  0.00    +0.142 C 
BRANCH  19  20
ATOM     20  CG  ASP A   7      34.344  11.905  95.789  0.00  0.00    +0.367 C 
ATOM     21  OD2 ASP A   7      34.583  12.986  96.321  0.00  0.00    -0.246 OA
ATOM     22  OD1 ASP A   7      34.726  10.819  96.229  0.00  0.00    -0.246 OA
ENDBRANCH  19  20
ENDBRANCH  16  19
ENDBRANCH  13  16
ENDBRANCH  11  12
BRANCH  11  23
ATOM     23  CB  THR A   6      38.220  11.165  92.267  0.00  0.00    +0.137 C 
ATOM     24  CG2 THR A   6      39.512  10.340  91.916  0.00  0.00    +0.034 C 
BRANCH  23  25
ATOM     25  OG1 THR A   6      38.484  12.572  92.073  0.00  0.00    -0.382 OA
ATOM     26  HG1 THR A   6      39.259  12.841  92.627  0.00  0.00    +0.210 HD
ENDBRANCH  23  25
ENDBRANCH  11  23
ENDBRANCH   8  11
ENDBRANCH   6   7
BRANCH   6  27
ATOM     27  CB  THR A   5      36.781   8.885  86.924  0.00  0.00    +0.137 C 
ATOM     28  CG2 THR A   5      36.910   9.266  85.387  0.00  0.00    +0.034 C 
BRANCH  27  29
ATOM     29  OG1 THR A   5      37.156   7.528  87.103  0.00  0.00    -0.382 OA
ATOM     30  HG1 THR A   5      37.056   7.282  88.057  0.00  0.00    +0.210 HD
ENDBRANCH  27  29
ENDBRANCH   6  27
ENDBRANCH   3   6
ENDBRANCH   1   2
BRANCH   1  33
ATOM     31  C   LEU A   3      42.175   8.475  88.880  0.00  0.00    +0.241 C 
ATOM     32  O   LEU A   3      42.357   9.417  89.602  0.00  0.00    -0.273 OA
ATOM     33  N   TRP A   4      41.768   8.609  87.631  0.00  0.00    -0.297 N 
ATOM     34  H   TRP A   4      41.668   7.750  87.053  0.00  0.00    +0.150 HD
BRANCH  31  35
ATOM     35  CA  LEU A   3      42.427   7.032  89.354  0.00  0.00    +0.149 C 
BRANCH  35  37
ATOM     36  C   GLY A   2      44.668   6.144  89.009  0.00  0.00    +0.243 C 
ATOM     37  N   LEU A   3      43.803   6.868  89.725  0.00  0.00    -0.297 N 
ATOM     38  H   LEU A   3      44.143   7.334  90.591  0.00  0.00    +0.150 HD
ATOM     39  O   GLY A   2      44.407   5.711  87.855  0.00  0.00    -0.273 OA
BRANCH  36  40
ATOM     40  CA  GLY A   2      46.021   5.948  89.694  0.00  0.00    +0.176 C 
BRANCH  40  43
ATOM     41  C   GLY A   1      48.299   6.061  88.921  0.00  0.00    +0.240 C 
ATOM     42  O   GLY A   1      48.535   7.054  89.633  0.00  0.00    -0.274 OA
ATOM     43  N   GLY A   2      47.099   5.552  88.814  0.00  0.00    -0.295 N 
ATOM     44  H   GLY A   2      46.915   4.843  88.076  0.00  0.00    +0.150 HD
BRANCH  41  45
ATOM     45  CA  GLY A   1      49.386   5.363  88.123  0.00  0.00    +0.169 C 
BRANCH  45  46
ATOM     46  N   GLY A   1      50.620   6.112  88.259  0.00  0.00    -0.236 NA
ATOM     47  H   GLY A   1      50.929   6.415  89.205  0.00  0.00    +0.142 HD
ENDBRANCH  45  46
ENDBRANCH  41  45
ENDBRANCH  40  43
ENDBRANCH  36  40
ENDBRANCH  35  37
BRANCH  35  48
ATOM     48  CB  LEU A   3      41.574   6.653  90.588  0.00  0.00    +0.029 C 
BRANCH  48  49
ATOM     49  CG  LEU A   3      40.099   6.762  90.469  0.00  0.00    +0.002 C 
ATOM     50  CD2 LEU A   3      39.457   6.530  91.787  0.00  0.00    +0.000 C 
ATOM     51  CD1 LEU A   3      39.434   5.878  89.329  0.00  0.00    +0.000 C 
ENDBRANCH  48  49
ENDBRANCH  35  48
ENDBRANCH  31  35
ENDBRANCH   1  33
BRANCH   1  52
ATOM     52  CB  TRP A   4      41.899   9.843  85.567  0.00  0.00    +0.057 C 
BRANCH  52  53
ATOM     53  CG  TRP A   4      43.177  10.532  85.372  0.00  0.00    -0.002 A 
ATOM     54  CD2 TRP A   4      44.459  10.184  85.954  0.00  0.00    +0.013 A 
ATOM     55  CE3 TRP A   4      44.907   9.140  86.776  0.00  0.00    +0.001 A 
ATOM     56  CZ3 TRP A   4      46.255   9.086  87.121  0.00  0.00    +0.000 A 
ATOM     57  CH2 TRP A   4      47.136  10.091  86.673  0.00  0.00    +0.001 A 
ATOM     58  CZ2 TRP A   4      46.699  11.136  85.902  0.00  0.00    +0.017 A 
ATOM     59  CE2 TRP A   4      45.367  11.168  85.550  0.00  0.00    +0.056 A 
ATOM     60  NE1 TRP A   4      44.681  12.079  84.785  0.00  0.00    -0.352 N 
ATOM     61  HE1 TRP A   4      45.097  12.933  84.361  0.00  0.00    +0.166 HD
ATOM     62  CD1 TRP A   4      43.386  11.706  84.662  0.00  0.00    +0.068 A 
ENDBRANCH  52  53
ENDBRANCH   1  52
TORSDOF 24
REMARK  Name = ../refined-set-2016/3jup/3jup_pocket.pdb
REMARK  167 active torsions:
REMARK  status: ('A' for Active; 'I' for Inactive)
REMARK    1  A    between atoms: _1  and  _3
REMARK    2  A    between atoms: _3  and  _4
REMARK    3  A    between atoms: _3  and  _6
REMARK    4  A    between atoms: _6  and  _7
REMARK    5  A    between atoms: _12  and  _13
REMARK    6  A    between atoms: _15  and  _17
REMARK    7  A    between atoms: _17  and  _18
REMARK    8  A    between atoms: _17  and  _20
REMARK    9  A    between atoms: _20  and  _21
REMARK   10  A    between atoms: _21  and  _22
REMARK   11  A    between atoms: _22  and  _23
REMARK   12  A    between atoms: _32  and  _34
REMARK   13  A    between atoms: _34  and  _35
REMARK   14  A    between atoms: _34  and  _37
REMARK   15  A    between atoms: _37  and  _38
REMARK   16  A    between atoms: _38  and  _39
REMARK   17  A    between atoms: _39  and  _40
REMARK   18  A    between atoms: _49  and  _51
REMARK   19  A    between atoms: _51  and  _52
REMARK   20  A    between atoms: _54  and  _56
REMARK   21  A    between atoms: _56  and  _57
REMARK   22  A    between atoms: _59  and  _61
REMARK   23  A    between atoms: _61  and  _62
REMARK   24  A    between atoms: _61  and  _64
REMARK   25  A    between atoms: _64  and  _65
REMARK   26  A    between atoms: _68  and  _70
REMARK   27  A    between atoms: _70  and  _71
REMARK   28  A    between atoms: _70  and  _73
REMARK   29  A    between atoms: _73  and  _74
REMARK   30  A    between atoms: _84  and  _86
REMARK   31  A    between atoms: _86  and  _87
REMARK   32  A    between atoms: _86  and  _89
REMARK   33  A    between atoms: _89  and  _90
REMARK   34  A    between atoms: _93  and  _95
REMARK   35  A    between atoms: _95  and  _96
REMARK   36  A    between atoms: _95  and  _98
REMARK   37  A    between atoms: _98  and  _99
REMARK   38  A    between atoms: _102  and  _104
REMARK   39  A    between atoms: _104  and  _105
REMARK   40  A    between atoms: _104  and  _107
REMARK   41  A    between atoms: _107  and  _108
REMARK   42  A    between atoms: _112  and  _113
REMARK   43  A    between atoms: _118  and  _120
REMARK   44  A    between atoms: _120  and  _121
REMARK   45  A    between atoms: _120  and  _123
REMARK   46  A    between atoms: _123  and  _124
REMARK   47  A    between atoms: _127  and  _129
REMARK   48  A    between atoms: _129  and  _130
REMARK   49  A    between atoms: _133  and  _135
REMARK   50  A    between atoms: _135  and  _136
REMARK   51  A    between atoms: _135  and  _138
REMARK   52  A    between atoms: _138  and  _139
REMARK   53  A    between atoms: _142  and  _144
REMARK   54  A    between atoms: _144  and  _145
REMARK   55  A    between atoms: _144  and  _147
REMARK   56  A    between atoms: _147  and  _148
REMARK   57  A    between atoms: _151  and  _153
REMARK   58  A    between atoms: _153  and  _154
REMARK   59  A    between atoms: _153  and  _156
REMARK   60  A    between atoms: _156  and  _157
REMARK   61  A    between atoms: _162  and  _164
REMARK   62  A    between atoms: _164  and  _165
REMARK   63  A    between atoms: _168  and  _170
REMARK   64  A    between atoms: _170  and  _171
REMARK   65  A    between atoms: _170  and  _173
REMARK   66  A    between atoms: _173  and  _174
REMARK   67  A    between atoms: _184  and  _186
REMARK   68  A    between atoms: _186  and  _187
REMARK   69  A    between atoms: _186  and  _189
REMARK   70  A    between atoms: _189  and  _190
REMARK   71  A    between atoms: _192  and  _194
REMARK   72  A    between atoms: _194  and  _195
REMARK   73  A    between atoms: _194  and  _197
REMARK   74  A    between atoms: _197  and  _198
REMARK   75  A    between atoms: _201  and  _203
REMARK   76  A    between atoms: _203  and  _204
REMARK   77  A    between atoms: _203  and  _206
REMARK   78  A    between atoms: _208  and  _210
REMARK   79  A    between atoms: _210  and  _211
REMARK   80  A    between atoms: _210  and  _213
REMARK   81  A    between atoms: _213  and  _214
REMARK   82  A    between atoms: _221  and  _222
REMARK   83  A    between atoms: _227  and  _229
REMARK   84  A    between atoms: _229  and  _230
REMARK   85  A    between atoms: _229  and  _232
REMARK   86  A    between atoms: _232  and  _233
REMARK   87  A    between atoms: _243  and  _245
REMARK   88  A    between atoms: _245  and  _246
REMARK   89  A    between atoms: _245  and  _248
REMARK   90  A    between atoms: _251  and  _253
REMARK   91  A    between atoms: _253  and  _254
REMARK   92  A    between atoms: _253  and  _256
REMARK   93  A    between atoms: _256  and  _257
REMARK   94  A    between atoms: _267  and  _269
REMARK   95  A    between atoms: _269  and  _270
REMARK   96  A    between atoms: _272  and  _274
REMARK   97  A    between atoms: _274  and  _275
REMARK   98  A    between atoms: _274  and  _277
REMARK   99  A    between atoms: _277  and  _278
REMARK  100  A    between atoms: _278  and  _279
REMARK  101  A    between atoms: _282  and  _284
REMARK  102  A    between atoms: _284  and  _285
REMARK  103  A    between atoms: _287  and  _289
REMARK  104  A    between atoms: _289  and  _290
REMARK  105  A    between atoms: _293  and  _295
REMARK  106  A    between atoms: _295  and  _296
REMARK  107  A    between atoms: _295  and  _298
REMARK  108  A    between atoms: _298  and  _299
REMARK  109  A    between atoms: _302  and  _304
REMARK  110  A    between atoms: _304  and  _305
REMARK  111  A    between atoms: _304  and  _307
REMARK  112  A    between atoms: _307  and  _308
REMARK  113  A    between atoms: _314  and  _316
REMARK  114  A    between atoms: _316  and  _317
REMARK  115  A    between atoms: _316  and  _319
REMARK  116  A    between atoms: _319  and  _320
REMARK  117  A    between atoms: _325  and  _326
REMARK  118  A    between atoms: _328  and  _330
REMARK  119  A    between atoms: _330  and  _331
REMARK  120  A    between atoms: _330  and  _333
REMARK  121  A    between atoms: _333  and  _334
REMARK  122  A    between atoms: _339  and  _341
REMARK  123  A    between atoms: _341  and  _342
REMARK  124  A    between atoms: _341  and  _344
REMARK  125  A    between atoms: _344  and  _345
REMARK  126  A    between atoms: _351  and  _353
REMARK  127  A    between atoms: _353  and  _354
REMARK  128  A    between atoms: _353  and  _356
REMARK  129  A    between atoms: _356  and  _357
REMARK  130  A    between atoms: _362  and  _364
REMARK  131  A    between atoms: _364  and  _365
REMARK  132  A    between atoms: _364  and  _367
REMARK  133  A    between atoms: _367  and  _368
REMARK  134  A    between atoms: _368  and  _369
REMARK  135  A    between atoms: _374  and  _376
REMARK  136  A    between atoms: _376  and  _377
REMARK  137  A    between atoms: _376  and  _379
REMARK  138  A    between atoms: _379  and  _380
REMARK  139  A    between atoms: _380  and  _381
REMARK  140  A    between atoms: _384  and  _386
REMARK  141  A    between atoms: _386  and  _387
REMARK  142  A    between atoms: _386  and  _389
REMARK  143  A    between atoms: _389  and  _390
REMARK  144  A    between atoms: _390  and  _391
REMARK  145  A    between atoms: _393  and  _395
REMARK  146  A    between atoms: _395  and  _396
REMARK  147  A    between atoms: _395  and  _398
REMARK  148  A    between atoms: _398  and  _399
REMARK  149  A    between atoms: _399  and  _400
REMARK  150  A    between atoms: _405  and  _407
REMARK  151  A    between atoms: _407  and  _408
REMARK  152  A    between atoms: _407  and  _410
REMARK  153  A    between atoms: _410  and  _411
REMARK  154  A    between atoms: _414  and  _416
REMARK  155  A    between atoms: _416  and  _417
REMARK  156  A    between atoms: _416  and  _419
REMARK  157  A    between atoms: _422  and  _424
REMARK  158  A    between atoms: _424  and  _425
REMARK  159  A    between atoms: _424  and  _427
REMARK  160  A    between atoms: _427  and  _428
REMARK  161  A    between atoms: _428  and  _429
REMARK  162  A    between atoms: _429  and  _430
REMARK  163  A    between atoms: _439  and  _441
REMARK  164  A    between atoms: _441  and  _442
REMARK  165  A    between atoms: _441  and  _444
REMARK  166  A    between atoms: _444  and  _445
REMARK  167  A    between atoms: _449  and  _450
REMARK                            x       y       z     vdW  Elec       q    Type
REMARK                         _______ _______ _______ _____ _____    ______ ____
ROOT
ATOM      1  C   ILE A   2      45.617   9.930  91.856  0.00  0.00    +0.241 C 
ATOM      2  N   ALA A   3      46.733  10.647  91.752  0.00  0.00    -0.297 N 
ATOM      3  H   ALA A   3      46.796  11.564  92.239  0.00  0.00    +0.150 HD
ATOM      4  O   ILE A   2      45.474   8.798  91.319  0.00  0.00    -0.273 OA
ENDROOT
BRANCH   2   5
ATOM      5  CA  ALA A   3      47.862  10.178  90.974  0.00  0.00    +0.149 C 
ATOM      6  CB  ALA A   3      48.469  11.321  90.165  0.00  0.00    +0.031 C 
BRANCH   5   7
ATOM      7  C   ALA A   3      48.868   9.599  91.960  0.00  0.00    +0.241 C 
ATOM      8  O   ALA A   3      49.114  10.199  92.978  0.00  0.00    -0.273 OA
ATOM      9  N   ILE A   4      49.435   8.430  91.670  0.00  0.00    -0.298 N 
ATOM     10  H   ILE A   4      49.167   7.952  90.786  0.00  0.00    +0.150 HD
BRANCH   9  11
ATOM     11  CA  ILE A   4      50.434   7.780  92.556  0.00  0.00    +0.137 C 
BRANCH  11  12
ATOM     12  CB  ILE A   4      50.065   6.308  92.838  0.00  0.00    +0.026 C 
ATOM     13  CG2 ILE A   4      51.082   5.721  93.832  0.00  0.00    +0.002 C 
BRANCH  12  14
ATOM     14  CG1 ILE A   4      48.633   6.187  93.400  0.00  0.00    +0.002 C 
ATOM     15  CD1 ILE A   4      47.977   4.970  93.041  0.00  0.00    +0.000 C 
ENDBRANCH  12  14
ENDBRANCH  11  12
BRANCH  11  16
ATOM     16  C   ILE A   4      51.745   7.866  91.805  0.00  0.00    +0.227 C 
ATOM     17  O   ILE A   4      51.918   7.247  90.750  0.00  0.00    -0.286 OA
ENDBRANCH  11  16
ENDBRANCH   9  11
ENDBRANCH   5   7
ENDBRANCH   2   5
BRANCH   1  18
ATOM     18  CA  ILE A   2      44.473  10.572  92.598  0.00  0.00    +0.148 C 
BRANCH  18  21
ATOM     19  C   PRO A   1      43.554  12.243  91.103  0.00  0.00    +0.239 C 
ATOM     20  O   PRO A   1      44.012  13.180  91.754  0.00  0.00    -0.274 OA
ATOM     21  N   ILE A   2      43.572  10.995  91.524  0.00  0.00    -0.297 N 
ATOM     22  H   ILE A   2      42.936  10.298  91.086  0.00  0.00    +0.150 HD
BRANCH  19  24
ATOM     23  N   PRO A   1      42.224  13.894  89.809  0.00  0.00    -0.210 NA
ATOM     24  CA  PRO A   1      42.884  12.572  89.782  0.00  0.00    +0.149 C 
ATOM     25  CB  PRO A   1      43.996  12.801  88.755  0.00  0.00    +0.028 C 
ATOM     26  CG  PRO A   1      43.366  13.703  87.779  0.00  0.00    +0.021 C 
ATOM     27  CD  PRO A   1      42.744  14.755  88.728  0.00  0.00    +0.089 C 
ENDBRANCH  19  24
ENDBRANCH  18  21
BRANCH  18  28
ATOM     28  CB  ILE A   2      43.898   9.503  93.557  0.00  0.00    +0.027 C 
ATOM     29  CG2 ILE A   2      44.905   9.191  94.702  0.00  0.00    +0.002 C 
BRANCH  28  30
ATOM     30  CG1 ILE A   2      42.497   9.855  94.074  0.00  0.00    +0.002 C 
ATOM     31  CD1 ILE A   2      42.336  11.242  94.430  0.00  0.00    +0.000 C 
ENDBRANCH  28  30
ENDBRANCH  18  28
ENDBRANCH   1  18
TORSDOF 11
REMARK  Name = ../refined-set-2016/3jup/3jup_pocket.pdb
REMARK  167 active torsions:
REMARK  status: ('A' for Active; 'I' for Inactive)
REMARK    1  A    between atoms: _1  and  _3
REMARK    2  A    between atoms: _3  and  _4
REMARK    3  A    between atoms: _3  and  _6
REMARK    4  A    between atoms: _6  and  _7
REMARK    5  A    between atoms: _12  and  _13
REMARK    6  A    between atoms: _15  and  _17
REMARK    7  A    between atoms: _17  and  _18
REMARK    8  A    between atoms: _17  and  _20
REMARK    9  A    between atoms: _20  and  _21
REMARK   10  A    between atoms: _21  and  _22
REMARK   11  A    between atoms: _22  and  _23
REMARK   12  A    between atoms: _32  and  _34
REMARK   13  A    between atoms: _34  and  _35
REMARK   14  A    between atoms: _34  and  _37
REMARK   15  A    between atoms: _37  and  _38
REMARK   16  A    between atoms: _38  and  _39
REMARK   17  A    between atoms: _39  and  _40
REMARK   18  A    between atoms: _49  and  _51
REMARK   19  A    between atoms: _51  and  _52
REMARK   20  A    between atoms: _54  and  _56
REMARK   21  A    between atoms: _56  and  _57
REMARK   22  A    between atoms: _59  and  _61
REMARK   23  A    between atoms: _61  and  _62
REMARK   24  A    between atoms: _61  and  _64
REMARK   25  A    between atoms: _64  and  _65
REMARK   26  A    between atoms: _68  and  _70
REMARK   27  A    between atoms: _70  and  _71
REMARK   28  A    between atoms: _70  and  _73
REMARK   29  A    between atoms: _73  and  _74
REMARK   30  A    between atoms: _84  and  _86
REMARK   31  A    between atoms: _86  and  _87
REMARK   32  A    between atoms: _86  and  _89
REMARK   33  A    between atoms: _89  and  _90
REMARK   34  A    between atoms: _93  and  _95
REMARK   35  A    between atoms: _95  and  _96
REMARK   36  A    between atoms: _95  and  _98
REMARK   37  A    between atoms: _98  and  _99
REMARK   38  A    between atoms: _102  and  _104
REMARK   39  A    between atoms: _104  and  _105
REMARK   40  A    between atoms: _104  and  _107
REMARK   41  A    between atoms: _107  and  _108
REMARK   42  A    between atoms: _112  and  _113
REMARK   43  A    between atoms: _118  and  _120
REMARK   44  A    between atoms: _120  and  _121
REMARK   45  A    between atoms: _120  and  _123
REMARK   46  A    between atoms: _123  and  _124
REMARK   47  A    between atoms: _127  and  _129
REMARK   48  A    between atoms: _129  and  _130
REMARK   49  A    between atoms: _133  and  _135
REMARK   50  A    between atoms: _135  and  _136
REMARK   51  A    between atoms: _135  and  _138
REMARK   52  A    between atoms: _138  and  _139
REMARK   53  A    between atoms: _142  and  _144
REMARK   54  A    between atoms: _144  and  _145
REMARK   55  A    between atoms: _144  and  _147
REMARK   56  A    between atoms: _147  and  _148
REMARK   57  A    between atoms: _151  and  _153
REMARK   58  A    between atoms: _153  and  _154
REMARK   59  A    between atoms: _153  and  _156
REMARK   60  A    between atoms: _156  and  _157
REMARK   61  A    between atoms: _162  and  _164
REMARK   62  A    between atoms: _164  and  _165
REMARK   63  A    between atoms: _168  and  _170
REMARK   64  A    between atoms: _170  and  _171
REMARK   65  A    between atoms: _170  and  _173
REMARK   66  A    between atoms: _173  and  _174
REMARK   67  A    between atoms: _184  and  _186
REMARK   68  A    between atoms: _186  and  _187
REMARK   69  A    between atoms: _186  and  _189
REMARK   70  A    between atoms: _189  and  _190
REMARK   71  A    between atoms: _192  and  _194
REMARK   72  A    between atoms: _194  and  _195
REMARK   73  A    between atoms: _194  and  _197
REMARK   74  A    between atoms: _197  and  _198
REMARK   75  A    between atoms: _201  and  _203
REMARK   76  A    between atoms: _203  and  _204
REMARK   77  A    between atoms: _203  and  _206
REMARK   78  A    between atoms: _208  and  _210
REMARK   79  A    between atoms: _210  and  _211
REMARK   80  A    between atoms: _210  and  _213
REMARK   81  A    between atoms: _213  and  _214
REMARK   82  A    between atoms: _221  and  _222
REMARK   83  A    between atoms: _227  and  _229
REMARK   84  A    between atoms: _229  and  _230
REMARK   85  A    between atoms: _229  and  _232
REMARK   86  A    between atoms: _232  and  _233
REMARK   87  A    between atoms: _243  and  _245
REMARK   88  A    between atoms: _245  and  _246
REMARK   89  A    between atoms: _245  and  _248
REMARK   90  A    between atoms: _251  and  _253
REMARK   91  A    between atoms: _253  and  _254
REMARK   92  A    between atoms: _253  and  _256
REMARK   93  A    between atoms: _256  and  _257
REMARK   94  A    between atoms: _267  and  _269
REMARK   95  A    between atoms: _269  and  _270
REMARK   96  A    between atoms: _272  and  _274
REMARK   97  A    between atoms: _274  and  _275
REMARK   98  A    between atoms: _274  and  _277
REMARK   99  A    between atoms: _277  and  _278
REMARK  100  A    between atoms: _278  and  _279
REMARK  101  A    between atoms: _282  and  _284
REMARK  102  A    between atoms: _284  and  _285
REMARK  103  A    between atoms: _287  and  _289
REMARK  104  A    between atoms: _289  and  _290
REMARK  105  A    between atoms: _293  and  _295
REMARK  106  A    between atoms: _295  and  _296
REMARK  107  A    between atoms: _295  and  _298
REMARK  108  A    between atoms: _298  and  _299
REMARK  109  A    between atoms: _302  and  _304
REMARK  110  A    between atoms: _304  and  _305
REMARK  111  A    between atoms: _304  and  _307
REMARK  112  A    between atoms: _307  and  _308
REMARK  113  A    between atoms: _314  and  _316
REMARK  114  A    between atoms: _316  and  _317
REMARK  115  A    between atoms: _316  and  _319
REMARK  116  A    between atoms: _319  and  _320
REMARK  117  A    between atoms: _325  and  _326
REMARK  118  A    between atoms: _328  and  _330
REMARK  119  A    between atoms: _330  and  _331
REMARK  120  A    between atoms: _330  and  _333
REMARK  121  A    between atoms: _333  and  _334
REMARK  122  A    between atoms: _339  and  _341
REMARK  123  A    between atoms: _341  and  _342
REMARK  124  A    between atoms: _341  and  _344
REMARK  125  A    between atoms: _344  and  _345
REMARK  126  A    between atoms: _351  and  _353
REMARK  127  A    between atoms: _353  and  _354
REMARK  128  A    between atoms: _353  and  _356
REMARK  129  A    between atoms: _356  and  _357
REMARK  130  A    between atoms: _362  and  _364
REMARK  131  A    between atoms: _364  and  _365
REMARK  132  A    between atoms: _364  and  _367
REMARK  133  A    between atoms: _367  and  _368
REMARK  134  A    between atoms: _368  and  _369
REMARK  135  A    between atoms: _374  and  _376
REMARK  136  A    between atoms: _376  and  _377
REMARK  137  A    between atoms: _376  and  _379
REMARK  138  A    between atoms: _379  and  _380
REMARK  139  A    between atoms: _380  and  _381
REMARK  140  A    between atoms: _384  and  _386
REMARK  141  A    between atoms: _386  and  _387
REMARK  142  A    between atoms: _386  and  _389
REMARK  143  A    between atoms: _389  and  _390
REMARK  144  A    between atoms: _390  and  _391
REMARK  145  A    between atoms: _393  and  _395
REMARK  146  A    between atoms: _395  and  _396
REMARK  147  A    between atoms: _395  and  _398
REMARK  148  A    between atoms: _398  and  _399
REMARK  149  A    between atoms: _399  and  _400
REMARK  150  A    between atoms: _405  and  _407
REMARK  151  A    between atoms: _407  and  _408
REMARK  152  A    between atoms: _407  and  _410
REMARK  153  A    between atoms: _410  and  _411
REMARK  154  A    between atoms: _414  and  _416
REMARK  155  A    between atoms: _416  and  _417
REMARK  156  A    between atoms: _416  and  _419
REMARK  157  A    between atoms: _422  and  _424
REMARK  158  A    between atoms: _424  and  _425
REMARK  159  A    between atoms: _424  and  _427
REMARK  160  A    between atoms: _427  and  _428
REMARK  161  A    between atoms: _428  and  _429
REMARK  162  A    between atoms: _429  and  _430
REMARK  163  A    between atoms: _439  and  _441
REMARK  164  A    between atoms: _441  and  _442
REMARK  165  A    between atoms: _441  and  _444
REMARK  166  A    between atoms: _444  and  _445
REMARK  167  A    between atoms: _449  and  _450
REMARK                            x       y       z     vdW  Elec       q    Type
REMARK                         _______ _______ _______ _____ _____    ______ ____
ROOT
ATOM      1  CA  LEU A   1      53.053   2.464  93.508  0.00  0.00    +0.133 C 
ENDROOT
BRANCH   1   2
ATOM      2  N   LEU A   1      54.003   3.453  94.123  0.00  0.00    -0.239 NA
ATOM      3  H   LEU A   1      54.777   3.847  93.551  0.00  0.00    +0.142 HD
ENDBRANCH   1   2
BRANCH   1   4
ATOM      4  C   LEU A   1      53.128   1.145  94.263  0.00  0.00    +0.224 C 
ATOM      5  O   LEU A   1      52.122   0.511  94.550  0.00  0.00    -0.287 OA
ENDBRANCH   1   4
BRANCH   1   6
ATOM      6  CB  LEU A   1      53.375   2.277  92.028  0.00  0.00    +0.025 C 
BRANCH   6   7
ATOM      7  CG  LEU A   1      52.847   3.409  91.149  0.00  0.00    +0.002 C 
ATOM      8  CD2 LEU A   1      51.330   3.264  91.006  0.00  0.00    +0.000 C 
ATOM      9  CD1 LEU A   1      53.549   3.422  89.784  0.00  0.00    +0.000 C 
ENDBRANCH   6   7
ENDBRANCH   1   6
TORSDOF 4
REMARK  Name = ../refined-set-2016/3jup/3jup_pocket.pdb
REMARK  167 active torsions:
REMARK  status: ('A' for Active; 'I' for Inactive)
REMARK    1  A    between atoms: _1  and  _3
REMARK    2  A    between atoms: _3  and  _4
REMARK    3  A    between atoms: _3  and  _6
REMARK    4  A    between atoms: _6  and  _7
REMARK    5  A    between atoms: _12  and  _13
REMARK    6  A    between atoms: _15  and  _17
REMARK    7  A    between atoms: _17  and  _18
REMARK    8  A    between atoms: _17  and  _20
REMARK    9  A    between atoms: _20  and  _21
REMARK   10  A    between atoms: _21  and  _22
REMARK   11  A    between atoms: _22  and  _23
REMARK   12  A    between atoms: _32  and  _34
REMARK   13  A    between atoms: _34  and  _35
REMARK   14  A    between atoms: _34  and  _37
REMARK   15  A    between atoms: _37  and  _38
REMARK   16  A    between atoms: _38  and  _39
REMARK   17  A    between atoms: _39  and  _40
REMARK   18  A    between atoms: _49  and  _51
REMARK   19  A    between atoms: _51  and  _52
REMARK   20  A    between atoms: _54  and  _56
REMARK   21  A    between atoms: _56  and  _57
REMARK   22  A    between atoms: _59  and  _61
REMARK   23  A    between atoms: _61  and  _62
REMARK   24  A    between atoms: _61  and  _64
REMARK   25  A    between atoms: _64  and  _65
REMARK   26  A    between atoms: _68  and  _70
REMARK   27  A    between atoms: _70  and  _71
REMARK   28  A    between atoms: _70  and  _73
REMARK   29  A    between atoms: _73  and  _74
REMARK   30  A    between atoms: _84  and  _86
REMARK   31  A    between atoms: _86  and  _87
REMARK   32  A    between atoms: _86  and  _89
REMARK   33  A    between atoms: _89  and  _90
REMARK   34  A    between atoms: _93  and  _95
REMARK   35  A    between atoms: _95  and  _96
REMARK   36  A    between atoms: _95  and  _98
REMARK   37  A    between atoms: _98  and  _99
REMARK   38  A    between atoms: _102  and  _104
REMARK   39  A    between atoms: _104  and  _105
REMARK   40  A    between atoms: _104  and  _107
REMARK   41  A    between atoms: _107  and  _108
REMARK   42  A    between atoms: _112  and  _113
REMARK   43  A    between atoms: _118  and  _120
REMARK   44  A    between atoms: _120  and  _121
REMARK   45  A    between atoms: _120  and  _123
REMARK   46  A    between atoms: _123  and  _124
REMARK   47  A    between atoms: _127  and  _129
REMARK   48  A    between atoms: _129  and  _130
REMARK   49  A    between atoms: _133  and  _135
REMARK   50  A    between atoms: _135  and  _136
REMARK   51  A    between atoms: _135  and  _138
REMARK   52  A    between atoms: _138  and  _139
REMARK   53  A    between atoms: _142  and  _144
REMARK   54  A    between atoms: _144  and  _145
REMARK   55  A    between atoms: _144  and  _147
REMARK   56  A    between atoms: _147  and  _148
REMARK   57  A    between atoms: _151  and  _153
REMARK   58  A    between atoms: _153  and  _154
REMARK   59  A    between atoms: _153  and  _156
REMARK   60  A    between atoms: _156  and  _157
REMARK   61  A    between atoms: _162  and  _164
REMARK   62  A    between atoms: _164  and  _165
REMARK   63  A    between atoms: _168  and  _170
REMARK   64  A    between atoms: _170  and  _171
REMARK   65  A    between atoms: _170  and  _173
REMARK   66  A    between atoms: _173  and  _174
REMARK   67  A    between atoms: _184  and  _186
REMARK   68  A    between atoms: _186  and  _187
REMARK   69  A    between atoms: _186  and  _189
REMARK   70  A    between atoms: _189  and  _190
REMARK   71  A    between atoms: _192  and  _194
REMARK   72  A    between atoms: _194  and  _195
REMARK   73  A    between atoms: _194  and  _197
REMARK   74  A    between atoms: _197  and  _198
REMARK   75  A    between atoms: _201  and  _203
REMARK   76  A    between atoms: _203  and  _204
REMARK   77  A    between atoms: _203  and  _206
REMARK   78  A    between atoms: _208  and  _210
REMARK   79  A    between atoms: _210  and  _211
REMARK   80  A    between atoms: _210  and  _213
REMARK   81  A    between atoms: _213  and  _214
REMARK   82  A    between atoms: _221  and  _222
REMARK   83  A    between atoms: _227  and  _229
REMARK   84  A    between atoms: _229  and  _230
REMARK   85  A    between atoms: _229  and  _232
REMARK   86  A    between atoms: _232  and  _233
REMARK   87  A    between atoms: _243  and  _245
REMARK   88  A    between atoms: _245  and  _246
REMARK   89  A    between atoms: _245  and  _248
REMARK   90  A    between atoms: _251  and  _253
REMARK   91  A    between atoms: _253  and  _254
REMARK   92  A    between atoms: _253  and  _256
REMARK   93  A    between atoms: _256  and  _257
REMARK   94  A    between atoms: _267  and  _269
REMARK   95  A    between atoms: _269  and  _270
REMARK   96  A    between atoms: _272  and  _274
REMARK   97  A    between atoms: _274  and  _275
REMARK   98  A    between atoms: _274  and  _277
REMARK   99  A    between atoms: _277  and  _278
REMARK  100  A    between atoms: _278  and  _279
REMARK  101  A    between atoms: _282  and  _284
REMARK  102  A    between atoms: _284  and  _285
REMARK  103  A    between atoms: _287  and  _289
REMARK  104  A    between atoms: _289  and  _290
REMARK  105  A    between atoms: _293  and  _295
REMARK  106  A    between atoms: _295  and  _296
REMARK  107  A    between atoms: _295  and  _298
REMARK  108  A    between atoms: _298  and  _299
REMARK  109  A    between atoms: _302  and  _304
REMARK  110  A    between atoms: _304  and  _305
REMARK  111  A    between atoms: _304  and  _307
REMARK  112  A    between atoms: _307  and  _308
REMARK  113  A    between atoms: _314  and  _316
REMARK  114  A    between atoms: _316  and  _317
REMARK  115  A    between atoms: _316  and  _319
REMARK  116  A    between atoms: _319  and  _320
REMARK  117  A    between atoms: _325  and  _326
REMARK  118  A    between atoms: _328  and  _330
REMARK  119  A    between atoms: _330  and  _331
REMARK  120  A    between atoms: _330  and  _333
REMARK  121  A    between atoms: _333  and  _334
REMARK  122  A    between atoms: _339  and  _341
REMARK  123  A    between atoms: _341  and  _342
REMARK  124  A    between atoms: _341  and  _344
REMARK  125  A    between atoms: _344  and  _345
REMARK  126  A    between atoms: _351  and  _353
REMARK  127  A    between atoms: _353  and  _354
REMARK  128  A    between atoms: _353  and  _356
REMARK  129  A    between atoms: _356  and  _357
REMARK  130  A    between atoms: _362  and  _364
REMARK  131  A    between atoms: _364  and  _365
REMARK  132  A    between atoms: _364  and  _367
REMARK  133  A    between atoms: _367  and  _368
REMARK  134  A    between atoms: _368  and  _369
REMARK  135  A    between atoms: _374  and  _376
REMARK  136  A    between atoms: _376  and  _377
REMARK  137  A    between atoms: _376  and  _379
REMARK  138  A    between atoms: _379  and  _380
REMARK  139  A    between atoms: _380  and  _381
REMARK  140  A    between atoms: _384  and  _386
REMARK  141  A    between atoms: _386  and  _387
REMARK  142  A    between atoms: _386  and  _389
REMARK  143  A    between atoms: _389  and  _390
REMARK  144  A    between atoms: _390  and  _391
REMARK  145  A    between atoms: _393  and  _395
REMARK  146  A    between atoms: _395  and  _396
REMARK  147  A    between atoms: _395  and  _398
REMARK  148  A    between atoms: _398  and  _399
REMARK  149  A    between atoms: _399  and  _400
REMARK  150  A    between atoms: _405  and  _407
REMARK  151  A    between atoms: _407  and  _408
REMARK  152  A    between atoms: _407  and  _410
REMARK  153  A    between atoms: _410  and  _411
REMARK  154  A    between atoms: _414  and  _416
REMARK  155  A    between atoms: _416  and  _417
REMARK  156  A    between atoms: _416  and  _419
REMARK  157  A    between atoms: _422  and  _424
REMARK  158  A    between atoms: _424  and  _425
REMARK  159  A    between atoms: _424  and  _427
REMARK  160  A    between atoms: _427  and  _428
REMARK  161  A    between atoms: _428  and  _429
REMARK  162  A    between atoms: _429  and  _430
REMARK  163  A    between atoms: _439  and  _441
REMARK  164  A    between atoms: _441  and  _442
REMARK  165  A    between atoms: _441  and  _444
REMARK  166  A    between atoms: _444  and  _445
REMARK  167  A    between atoms: _449  and  _450
REMARK                            x       y       z     vdW  Elec       q    Type
REMARK                         _______ _______ _______ _____ _____    ______ ____
ROOT
ATOM      1  CA  HIS A   1      50.003   1.853  97.333  0.00  0.00    +0.151 C 
ENDROOT
BRANCH   1   2
ATOM      2  C   HIS A   1      49.296   0.513  97.157  0.00  0.00    +0.239 C 
ATOM      3  O   HIS A   1      48.147   0.348  97.552  0.00  0.00    -0.274 OA
ATOM      4  N   ALA A   2      49.990  -0.452  96.558  0.00  0.00    -0.298 N 
ATOM      5  H   ALA A   2      50.945  -0.237  96.208  0.00  0.00    +0.150 HD
BRANCH   4   6
ATOM      6  CA  ALA A   2      49.462  -1.802  96.373  0.00  0.00    +0.137 C 
ATOM      7  CB  ALA A   2      50.473  -2.607  95.586  0.00  0.00    +0.030 C 
BRANCH   6   8
ATOM      8  C   ALA A   2      49.112  -2.527  97.680  0.00  0.00    +0.227 C 
ATOM      9  O   ALA A   2      48.230  -3.395  97.717  0.00  0.00    -0.286 OA
ENDBRANCH   6   8
ENDBRANCH   4   6
ENDBRANCH   1   2
BRANCH   1  10
ATOM     10  N   HIS A   1      51.443   1.650  97.503  0.00  0.00    -0.238 NA
ATOM     11  H   HIS A   1      52.099   1.907  96.738  0.00  0.00    +0.142 HD
ENDBRANCH   1  10
BRANCH   1  12
ATOM     12  CB  HIS A   1      49.733   2.768  96.132  0.00  0.00    +0.074 C 
BRANCH  12  13
ATOM     13  CG  HIS A   1      48.369   2.597  95.570  0.00  0.00    +0.082 A 
ATOM     14  ND1 HIS A   1      47.299   3.371  95.971  0.00  0.00    -0.227 NA
ATOM     15  CE1 HIS A   1      46.221   2.951  95.333  0.00  0.00    +0.199 A 
ATOM     16  NE2 HIS A   1      46.539   1.898  94.575  0.00  0.00    -0.221 NA
ATOM     17  CD2 HIS A   1      47.874   1.652  94.710  0.00  0.00    +0.115 A 
ENDBRANCH  12  13
ENDBRANCH   1  12
TORSDOF 6
REMARK  Name = ../refined-set-2016/3jup/3jup_pocket.pdb
REMARK  167 active torsions:
REMARK  status: ('A' for Active; 'I' for Inactive)
REMARK    1  A    between atoms: _1  and  _3
REMARK    2  A    between atoms: _3  and  _4
REMARK    3  A    between atoms: _3  and  _6
REMARK    4  A    between atoms: _6  and  _7
REMARK    5  A    between atoms: _12  and  _13
REMARK    6  A    between atoms: _15  and  _17
REMARK    7  A    between atoms: _17  and  _18
REMARK    8  A    between atoms: _17  and  _20
REMARK    9  A    between atoms: _20  and  _21
REMARK   10  A    between atoms: _21  and  _22
REMARK   11  A    between atoms: _22  and  _23
REMARK   12  A    between atoms: _32  and  _34
REMARK   13  A    between atoms: _34  and  _35
REMARK   14  A    between atoms: _34  and  _37
REMARK   15  A    between atoms: _37  and  _38
REMARK   16  A    between atoms: _38  and  _39
REMARK   17  A    between atoms: _39  and  _40
REMARK   18  A    between atoms: _49  and  _51
REMARK   19  A    between atoms: _51  and  _52
REMARK   20  A    between atoms: _54  and  _56
REMARK   21  A    between atoms: _56  and  _57
REMARK   22  A    between atoms: _59  and  _61
REMARK   23  A    between atoms: _61  and  _62
REMARK   24  A    between atoms: _61  and  _64
REMARK   25  A    between atoms: _64  and  _65
REMARK   26  A    between atoms: _68  and  _70
REMARK   27  A    between atoms: _70  and  _71
REMARK   28  A    between atoms: _70  and  _73
REMARK   29  A    between atoms: _73  and  _74
REMARK   30  A    between atoms: _84  and  _86
REMARK   31  A    between atoms: _86  and  _87
REMARK   32  A    between atoms: _86  and  _89
REMARK   33  A    between atoms: _89  and  _90
REMARK   34  A    between atoms: _93  and  _95
REMARK   35  A    between atoms: _95  and  _96
REMARK   36  A    between atoms: _95  and  _98
REMARK   37  A    between atoms: _98  and  _99
REMARK   38  A    between atoms: _102  and  _104
REMARK   39  A    between atoms: _104  and  _105
REMARK   40  A    between atoms: _104  and  _107
REMARK   41  A    between atoms: _107  and  _108
REMARK   42  A    between atoms: _112  and  _113
REMARK   43  A    between atoms: _118  and  _120
REMARK   44  A    between atoms: _120  and  _121
REMARK   45  A    between atoms: _120  and  _123
REMARK   46  A    between atoms: _123  and  _124
REMARK   47  A    between atoms: _127  and  _129
REMARK   48  A    between atoms: _129  and  _130
REMARK   49  A    between atoms: _133  and  _135
REMARK   50  A    between atoms: _135  and  _136
REMARK   51  A    between atoms: _135  and  _138
REMARK   52  A    between atoms: _138  and  _139
REMARK   53  A    between atoms: _142  and  _144
REMARK   54  A    between atoms: _144  and  _145
REMARK   55  A    between atoms: _144  and  _147
REMARK   56  A    between atoms: _147  and  _148
REMARK   57  A    between atoms: _151  and  _153
REMARK   58  A    between atoms: _153  and  _154
REMARK   59  A    between atoms: _153  and  _156
REMARK   60  A    between atoms: _156  and  _157
REMARK   61  A    between atoms: _162  and  _164
REMARK   62  A    between atoms: _164  and  _165
REMARK   63  A    between atoms: _168  and  _170
REMARK   64  A    between atoms: _170  and  _171
REMARK   65  A    between atoms: _170  and  _173
REMARK   66  A    between atoms: _173  and  _174
REMARK   67  A    between atoms: _184  and  _186
REMARK   68  A    between atoms: _186  and  _187
REMARK   69  A    between atoms: _186  and  _189
REMARK   70  A    between atoms: _189  and  _190
REMARK   71  A    between atoms: _192  and  _194
REMARK   72  A    between atoms: _194  and  _195
REMARK   73  A    between atoms: _194  and  _197
REMARK   74  A    between atoms: _197  and  _198
REMARK   75  A    between atoms: _201  and  _203
REMARK   76  A    between atoms: _203  and  _204
REMARK   77  A    between atoms: _203  and  _206
REMARK   78  A    between atoms: _208  and  _210
REMARK   79  A    between atoms: _210  and  _211
REMARK   80  A    between atoms: _210  and  _213
REMARK   81  A    between atoms: _213  and  _214
REMARK   82  A    between atoms: _221  and  _222
REMARK   83  A    between atoms: _227  and  _229
REMARK   84  A    between atoms: _229  and  _230
REMARK   85  A    between atoms: _229  and  _232
REMARK   86  A    between atoms: _232  and  _233
REMARK   87  A    between atoms: _243  and  _245
REMARK   88  A    between atoms: _245  and  _246
REMARK   89  A    between atoms: _245  and  _248
REMARK   90  A    between atoms: _251  and  _253
REMARK   91  A    between atoms: _253  and  _254
REMARK   92  A    between atoms: _253  and  _256
REMARK   93  A    between atoms: _256  and  _257
REMARK   94  A    between atoms: _267  and  _269
REMARK   95  A    between atoms: _269  and  _270
REMARK   96  A    between atoms: _272  and  _274
REMARK   97  A    between atoms: _274  and  _275
REMARK   98  A    between atoms: _274  and  _277
REMARK   99  A    between atoms: _277  and  _278
REMARK  100  A    between atoms: _278  and  _279
REMARK  101  A    between atoms: _282  and  _284
REMARK  102  A    between atoms: _284  and  _285
REMARK  103  A    between atoms: _287  and  _289
REMARK  104  A    between atoms: _289  and  _290
REMARK  105  A    between atoms: _293  and  _295
REMARK  106  A    between atoms: _295  and  _296
REMARK  107  A    between atoms: _295  and  _298
REMARK  108  A    between atoms: _298  and  _299
REMARK  109  A    between atoms: _302  and  _304
REMARK  110  A    between atoms: _304  and  _305
REMARK  111  A    between atoms: _304  and  _307
REMARK  112  A    between atoms: _307  and  _308
REMARK  113  A    between atoms: _314  and  _316
REMARK  114  A    between atoms: _316  and  _317
REMARK  115  A    between atoms: _316  and  _319
REMARK  116  A    between atoms: _319  and  _320
REMARK  117  A    between atoms: _325  and  _326
REMARK  118  A    between atoms: _328  and  _330
REMARK  119  A    between atoms: _330  and  _331
REMARK  120  A    between atoms: _330  and  _333
REMARK  121  A    between atoms: _333  and  _334
REMARK  122  A    between atoms: _339  and  _341
REMARK  123  A    between atoms: _341  and  _342
REMARK  124  A    between atoms: _341  and  _344
REMARK  125  A    between atoms: _344  and  _345
REMARK  126  A    between atoms: _351  and  _353
REMARK  127  A    between atoms: _353  and  _354
REMARK  128  A    between atoms: _353  and  _356
REMARK  129  A    between atoms: _356  and  _357
REMARK  130  A    between atoms: _362  and  _364
REMARK  131  A    between atoms: _364  and  _365
REMARK  132  A    between atoms: _364  and  _367
REMARK  133  A    between atoms: _367  and  _368
REMARK  134  A    between atoms: _368  and  _369
REMARK  135  A    between atoms: _374  and  _376
REMARK  136  A    between atoms: _376  and  _377
REMARK  137  A    between atoms: _376  and  _379
REMARK  138  A    between atoms: _379  and  _380
REMARK  139  A    between atoms: _380  and  _381
REMARK  140  A    between atoms: _384  and  _386
REMARK  141  A    between atoms: _386  and  _387
REMARK  142  A    between atoms: _386  and  _389
REMARK  143  A    between atoms: _389  and  _390
REMARK  144  A    between atoms: _390  and  _391
REMARK  145  A    between atoms: _393  and  _395
REMARK  146  A    between atoms: _395  and  _396
REMARK  147  A    between atoms: _395  and  _398
REMARK  148  A    between atoms: _398  and  _399
REMARK  149  A    between atoms: _399  and  _400
REMARK  150  A    between atoms: _405  and  _407
REMARK  151  A    between atoms: _407  and  _408
REMARK  152  A    between atoms: _407  and  _410
REMARK  153  A    between atoms: _410  and  _411
REMARK  154  A    between atoms: _414  and  _416
REMARK  155  A    between atoms: _416  and  _417
REMARK  156  A    between atoms: _416  and  _419
REMARK  157  A    between atoms: _422  and  _424
REMARK  158  A    between atoms: _424  and  _425
REMARK  159  A    between atoms: _424  and  _427
REMARK  160  A    between atoms: _427  and  _428
REMARK  161  A    between atoms: _428  and  _429
REMARK  162  A    between atoms: _429  and  _430
REMARK  163  A    between atoms: _439  and  _441
REMARK  164  A    between atoms: _441  and  _442
REMARK  165  A    between atoms: _441  and  _444
REMARK  166  A    between atoms: _444  and  _445
REMARK  167  A    between atoms: _449  and  _450
REMARK                            x       y       z     vdW  Elec       q    Type
REMARK                         _______ _______ _______ _____ _____    ______ ____
ROOT
ATOM      1  C   TRP A   1      45.440  -1.163  99.656  0.00  0.00    +0.239 C 
ATOM      2  O   TRP A   1      44.374  -1.652 100.109  0.00  0.00    -0.274 OA
ATOM      3  N   SER A   2      45.746  -1.260  98.370  0.00  0.00    -0.295 N 
ATOM      4  H   SER A   2      46.689  -0.962  98.047  0.00  0.00    +0.150 HD
ENDROOT
BRANCH   1   5
ATOM      5  CA  TRP A   1      46.473  -0.489 100.575  0.00  0.00    +0.149 C 
BRANCH   5   6
ATOM      6  N   TRP A   1      47.794  -1.051 100.294  0.00  0.00    -0.238 NA
ATOM      7  H   TRP A   1      48.527  -0.421  99.910  0.00  0.00    +0.142 HD
ENDBRANCH   5   6
BRANCH   5   8
ATOM      8  CB  TRP A   1      46.487   1.033 100.385  0.00  0.00    +0.054 C 
BRANCH   8   9
ATOM      9  CG  TRP A   1      45.144   1.652 100.503  0.00  0.00    -0.002 A 
ATOM     10  CD1 TRP A   1      44.515   2.024 101.644  0.00  0.00    +0.068 A 
ATOM     11  NE1 TRP A   1      43.288   2.576 101.344  0.00  0.00    -0.352 N 
ATOM     12  HE1 TRP A   1      42.618   2.973 102.033  0.00  0.00    +0.166 HD
ATOM     13  CE2 TRP A   1      43.098   2.515  99.990  0.00  0.00    +0.056 A 
ATOM     14  CZ2 TRP A   1      42.020   2.913  99.212  0.00  0.00    +0.017 A 
ATOM     15  CH2 TRP A   1      42.124   2.729  97.851  0.00  0.00    +0.001 A 
ATOM     16  CZ3 TRP A   1      43.279   2.169  97.274  0.00  0.00    +0.000 A 
ATOM     17  CE3 TRP A   1      44.330   1.803  98.030  0.00  0.00    +0.001 A 
ATOM     18  CD2 TRP A   1      44.259   1.958  99.427  0.00  0.00    +0.013 A 
ENDBRANCH   8   9
ENDBRANCH   5   8
ENDBRANCH   1   5
BRANCH   3  19
ATOM     19  CA  SER A   2      44.777  -1.782  97.386  0.00  0.00    +0.178 C 
BRANCH  19  20
ATOM     20  C   SER A   2      44.412  -3.233  97.652  0.00  0.00    +0.243 C 
ATOM     21  N   LEU A   3      45.408  -4.010  98.096  0.00  0.00    -0.298 N 
ATOM     22  H   LEU A   3      46.343  -3.591  98.273  0.00  0.00    +0.150 HD
ATOM     23  O   SER A   2      43.227  -3.683  97.500  0.00  0.00    -0.273 OA
BRANCH  21  24
ATOM     24  CA  LEU A   3      45.211  -5.388  98.328  0.00  0.00    +0.137 C 
BRANCH  24  25
ATOM     25  C   LEU A   3      44.387  -5.593  99.590  0.00  0.00    +0.227 C 
ATOM     26  O   LEU A   3      43.583  -6.543  99.633  0.00  0.00    -0.286 OA
ENDBRANCH  24  25
BRANCH  24  27
ATOM     27  CB  LEU A   3      46.556  -6.077  98.406  0.00  0.00    +0.028 C 
BRANCH  27  28
ATOM     28  CG  LEU A   3      46.520  -7.569  98.423  0.00  0.00    +0.002 C 
ATOM     29  CD2 LEU A   3      47.975  -8.077  98.570  0.00  0.00    +0.000 C 
ATOM     30  CD1 LEU A   3      45.786  -8.223  97.232  0.00  0.00    +0.000 C 
ENDBRANCH  27  28
ENDBRANCH  24  27
ENDBRANCH  21  24
ENDBRANCH  19  20
BRANCH  19  31
ATOM     31  CB  SER A   2      45.292  -1.602  95.933  0.00  0.00    +0.166 C 
BRANCH  31  32
ATOM     32  OG  SER A   2      44.530  -2.444  95.040  0.00  0.00    -0.380 OA
ATOM     33  H   SER A   2      44.861  -2.326  94.115  0.00  0.00    +0.211 HD
ENDBRANCH  31  32
ENDBRANCH  19  31
ENDBRANCH   3  19
TORSDOF 12
REMARK  Name = ../refined-set-2016/3jup/3jup_pocket.pdb
REMARK  167 active torsions:
REMARK  status: ('A' for Active; 'I' for Inactive)
REMARK    1  A    between atoms: _1  and  _3
REMARK    2  A    between atoms: _3  and  _4
REMARK    3  A    between atoms: _3  and  _6
REMARK    4  A    between atoms: _6  and  _7
REMARK    5  A    between atoms: _12  and  _13
REMARK    6  A    between atoms: _15  and  _17
REMARK    7  A    between atoms: _17  and  _18
REMARK    8  A    between atoms: _17  and  _20
REMARK    9  A    between atoms: _20  and  _21
REMARK   10  A    between atoms: _21  and  _22
REMARK   11  A    between atoms: _22  and  _23
REMARK   12  A    between atoms: _32  and  _34
REMARK   13  A    between atoms: _34  and  _35
REMARK   14  A    between atoms: _34  and  _37
REMARK   15  A    between atoms: _37  and  _38
REMARK   16  A    between atoms: _38  and  _39
REMARK   17  A    between atoms: _39  and  _40
REMARK   18  A    between atoms: _49  and  _51
REMARK   19  A    between atoms: _51  and  _52
REMARK   20  A    between atoms: _54  and  _56
REMARK   21  A    between atoms: _56  and  _57
REMARK   22  A    between atoms: _59  and  _61
REMARK   23  A    between atoms: _61  and  _62
REMARK   24  A    between atoms: _61  and  _64
REMARK   25  A    between atoms: _64  and  _65
REMARK   26  A    between atoms: _68  and  _70
REMARK   27  A    between atoms: _70  and  _71
REMARK   28  A    between atoms: _70  and  _73
REMARK   29  A    between atoms: _73  and  _74
REMARK   30  A    between atoms: _84  and  _86
REMARK   31  A    between atoms: _86  and  _87
REMARK   32  A    between atoms: _86  and  _89
REMARK   33  A    between atoms: _89  and  _90
REMARK   34  A    between atoms: _93  and  _95
REMARK   35  A    between atoms: _95  and  _96
REMARK   36  A    between atoms: _95  and  _98
REMARK   37  A    between atoms: _98  and  _99
REMARK   38  A    between atoms: _102  and  _104
REMARK   39  A    between atoms: _104  and  _105
REMARK   40  A    between atoms: _104  and  _107
REMARK   41  A    between atoms: _107  and  _108
REMARK   42  A    between atoms: _112  and  _113
REMARK   43  A    between atoms: _118  and  _120
REMARK   44  A    between atoms: _120  and  _121
REMARK   45  A    between atoms: _120  and  _123
REMARK   46  A    between atoms: _123  and  _124
REMARK   47  A    between atoms: _127  and  _129
REMARK   48  A    between atoms: _129  and  _130
REMARK   49  A    between atoms: _133  and  _135
REMARK   50  A    between atoms: _135  and  _136
REMARK   51  A    between atoms: _135  and  _138
REMARK   52  A    between atoms: _138  and  _139
REMARK   53  A    between atoms: _142  and  _144
REMARK   54  A    between atoms: _144  and  _145
REMARK   55  A    between atoms: _144  and  _147
REMARK   56  A    between atoms: _147  and  _148
REMARK   57  A    between atoms: _151  and  _153
REMARK   58  A    between atoms: _153  and  _154
REMARK   59  A    between atoms: _153  and  _156
REMARK   60  A    between atoms: _156  and  _157
REMARK   61  A    between atoms: _162  and  _164
REMARK   62  A    between atoms: _164  and  _165
REMARK   63  A    between atoms: _168  and  _170
REMARK   64  A    between atoms: _170  and  _171
REMARK   65  A    between atoms: _170  and  _173
REMARK   66  A    between atoms: _173  and  _174
REMARK   67  A    between atoms: _184  and  _186
REMARK   68  A    between atoms: _186  and  _187
REMARK   69  A    between atoms: _186  and  _189
REMARK   70  A    between atoms: _189  and  _190
REMARK   71  A    between atoms: _192  and  _194
REMARK   72  A    between atoms: _194  and  _195
REMARK   73  A    between atoms: _194  and  _197
REMARK   74  A    between atoms: _197  and  _198
REMARK   75  A    between atoms: _201  and  _203
REMARK   76  A    between atoms: _203  and  _204
REMARK   77  A    between atoms: _203  and  _206
REMARK   78  A    between atoms: _208  and  _210
REMARK   79  A    between atoms: _210  and  _211
REMARK   80  A    between atoms: _210  and  _213
REMARK   81  A    between atoms: _213  and  _214
REMARK   82  A    between atoms: _221  and  _222
REMARK   83  A    between atoms: _227  and  _229
REMARK   84  A    between atoms: _229  and  _230
REMARK   85  A    between atoms: _229  and  _232
REMARK   86  A    between atoms: _232  and  _233
REMARK   87  A    between atoms: _243  and  _245
REMARK   88  A    between atoms: _245  and  _246
REMARK   89  A    between atoms: _245  and  _248
REMARK   90  A    between atoms: _251  and  _253
REMARK   91  A    between atoms: _253  and  _254
REMARK   92  A    between atoms: _253  and  _256
REMARK   93  A    between atoms: _256  and  _257
REMARK   94  A    between atoms: _267  and  _269
REMARK   95  A    between atoms: _269  and  _270
REMARK   96  A    between atoms: _272  and  _274
REMARK   97  A    between atoms: _274  and  _275
REMARK   98  A    between atoms: _274  and  _277
REMARK   99  A    between atoms: _277  and  _278
REMARK  100  A    between atoms: _278  and  _279
REMARK  101  A    between atoms: _282  and  _284
REMARK  102  A    between atoms: _284  and  _285
REMARK  103  A    between atoms: _287  and  _289
REMARK  104  A    between atoms: _289  and  _290
REMARK  105  A    between atoms: _293  and  _295
REMARK  106  A    between atoms: _295  and  _296
REMARK  107  A    between atoms: _295  and  _298
REMARK  108  A    between atoms: _298  and  _299
REMARK  109  A    between atoms: _302  and  _304
REMARK  110  A    between atoms: _304  and  _305
REMARK  111  A    between atoms: _304  and  _307
REMARK  112  A    between atoms: _307  and  _308
REMARK  113  A    between atoms: _314  and  _316
REMARK  114  A    between atoms: _316  and  _317
REMARK  115  A    between atoms: _316  and  _319
REMARK  116  A    between atoms: _319  and  _320
REMARK  117  A    between atoms: _325  and  _326
REMARK  118  A    between atoms: _328  and  _330
REMARK  119  A    between atoms: _330  and  _331
REMARK  120  A    between atoms: _330  and  _333
REMARK  121  A    between atoms: _333  and  _334
REMARK  122  A    between atoms: _339  and  _341
REMARK  123  A    between atoms: _341  and  _342
REMARK  124  A    between atoms: _341  and  _344
REMARK  125  A    between atoms: _344  and  _345
REMARK  126  A    between atoms: _351  and  _353
REMARK  127  A    between atoms: _353  and  _354
REMARK  128  A    between atoms: _353  and  _356
REMARK  129  A    between atoms: _356  and  _357
REMARK  130  A    between atoms: _362  and  _364
REMARK  131  A    between atoms: _364  and  _365
REMARK  132  A    between atoms: _364  and  _367
REMARK  133  A    between atoms: _367  and  _368
REMARK  134  A    between atoms: _368  and  _369
REMARK  135  A    between atoms: _374  and  _376
REMARK  136  A    between atoms: _376  and  _377
REMARK  137  A    between atoms: _376  and  _379
REMARK  138  A    between atoms: _379  and  _380
REMARK  139  A    between atoms: _380  and  _381
REMARK  140  A    between atoms: _384  and  _386
REMARK  141  A    between atoms: _386  and  _387
REMARK  142  A    between atoms: _386  and  _389
REMARK  143  A    between atoms: _389  and  _390
REMARK  144  A    between atoms: _390  and  _391
REMARK  145  A    between atoms: _393  and  _395
REMARK  146  A    between atoms: _395  and  _396
REMARK  147  A    between atoms: _395  and  _398
REMARK  148  A    between atoms: _398  and  _399
REMARK  149  A    between atoms: _399  and  _400
REMARK  150  A    between atoms: _405  and  _407
REMARK  151  A    between atoms: _407  and  _408
REMARK  152  A    between atoms: _407  and  _410
REMARK  153  A    between atoms: _410  and  _411
REMARK  154  A    between atoms: _414  and  _416
REMARK  155  A    between atoms: _416  and  _417
REMARK  156  A    between atoms: _416  and  _419
REMARK  157  A    between atoms: _422  and  _424
REMARK  158  A    between atoms: _424  and  _425
REMARK  159  A    between atoms: _424  and  _427
REMARK  160  A    between atoms: _427  and  _428
REMARK  161  A    between atoms: _428  and  _429
REMARK  162  A    between atoms: _429  and  _430
REMARK  163  A    between atoms: _439  and  _441
REMARK  164  A    between atoms: _441  and  _442
REMARK  165  A    between atoms: _441  and  _444
REMARK  166  A    between atoms: _444  and  _445
REMARK  167  A    between atoms: _449  and  _450
REMARK                            x       y       z     vdW  Elec       q    Type
REMARK                         _______ _______ _______ _____ _____    ______ ____
ROOT
ATOM      1  CA  PHE A   2      40.093  -4.901  97.363  0.00  0.00    +0.153 C 
ENDROOT
BRANCH   1   2
ATOM      2  C   PHE A   2      40.771  -6.286  97.322  0.00  0.00    +0.244 C 
ATOM      3  N   PRO A   3      40.434  -7.193  98.271  0.00  0.00    -0.273 N 
ATOM      4  CD  PRO A   3      39.341  -7.145  99.265  0.00  0.00    +0.094 C 
ATOM      5  CG  PRO A   3      39.383  -8.482  99.944  0.00  0.00    +0.024 C 
ATOM      6  CB  PRO A   3      40.797  -8.969  99.785  0.00  0.00    +0.030 C 
ATOM      7  CA  PRO A   3      41.308  -8.348  98.464  0.00  0.00    +0.140 C 
ATOM      8  O   PHE A   2      41.562  -6.514  96.445  0.00  0.00    -0.273 OA
BRANCH   7   9
ATOM      9  C   PRO A   3      41.323  -9.375  97.334  0.00  0.00    +0.227 C 
ATOM     10  O   PRO A   3      42.295 -10.115  97.237  0.00  0.00    -0.286 OA
ENDBRANCH   7   9
ENDBRANCH   1   2
BRANCH   1  13
ATOM     11  C   CYS A   1      39.906  -3.472  99.331  0.00  0.00    +0.239 C 
ATOM     12  O   CYS A   1      38.622  -3.508  99.319  0.00  0.00    -0.274 OA
ATOM     13  N   PHE A   2      40.661  -4.119  98.434  0.00  0.00    -0.297 N 
ATOM     14  H   PHE A   2      41.696  -4.055  98.512  0.00  0.00    +0.150 HD
BRANCH  11  15
ATOM     15  CA  CYS A   1      40.674  -2.727 100.383  0.00  0.00    +0.156 C 
BRANCH  15  16
ATOM     16  N   CYS A   1      42.023  -3.253 100.700  0.00  0.00    -0.237 NA
ATOM     17  H   CYS A   1      42.856  -2.733 100.358  0.00  0.00    +0.142 HD
ENDBRANCH  15  16
BRANCH  15  18
ATOM     18  CB  CYS A   1      40.802  -1.259 100.024  0.00  0.00    +0.095 C 
ATOM     19  SG  CYS A   1      41.385  -0.276 101.441  0.00  0.00    -0.080 S 
ENDBRANCH  15  18
ENDBRANCH  11  15
ENDBRANCH   1  13
BRANCH   1  20
ATOM     20  CB  PHE A   2      40.305  -4.161  96.040  0.00  0.00    +0.055 C 
BRANCH  20  21
ATOM     21  CG  PHE A   2      39.716  -2.780  96.022  0.00  0.00    -0.020 A 
ATOM     22  CD2 PHE A   2      40.496  -1.681  96.327  0.00  0.00    -0.004 A 
ATOM     23  CE2 PHE A   2      39.948  -0.359  96.298  0.00  0.00    -0.000 A 
ATOM     24  CZ  PHE A   2      38.629  -0.201  95.988  0.00  0.00    -0.000 A 
ATOM     25  CE1 PHE A   2      37.841  -1.347  95.678  0.00  0.00    -0.000 A 
ATOM     26  CD1 PHE A   2      38.393  -2.608  95.703  0.00  0.00    -0.004 A 
ENDBRANCH  20  21
ENDBRANCH   1  20
TORSDOF 8
REMARK  Name = ../refined-set-2016/3jup/3jup_pocket.pdb
REMARK  167 active torsions:
REMARK  status: ('A' for Active; 'I' for Inactive)
REMARK    1  A    between atoms: _1  and  _3
REMARK    2  A    between atoms: _3  and  _4
REMARK    3  A    between atoms: _3  and  _6
REMARK    4  A    between atoms: _6  and  _7
REMARK    5  A    between atoms: _12  and  _13
REMARK    6  A    between atoms: _15  and  _17
REMARK    7  A    between atoms: _17  and  _18
REMARK    8  A    between atoms: _17  and  _20
REMARK    9  A    between atoms: _20  and  _21
REMARK   10  A    between atoms: _21  and  _22
REMARK   11  A    between atoms: _22  and  _23
REMARK   12  A    between atoms: _32  and  _34
REMARK   13  A    between atoms: _34  and  _35
REMARK   14  A    between atoms: _34  and  _37
REMARK   15  A    between atoms: _37  and  _38
REMARK   16  A    between atoms: _38  and  _39
REMARK   17  A    between atoms: _39  and  _40
REMARK   18  A    between atoms: _49  and  _51
REMARK   19  A    between atoms: _51  and  _52
REMARK   20  A    between atoms: _54  and  _56
REMARK   21  A    between atoms: _56  and  _57
REMARK   22  A    between atoms: _59  and  _61
REMARK   23  A    between atoms: _61  and  _62
REMARK   24  A    between atoms: _61  and  _64
REMARK   25  A    between atoms: _64  and  _65
REMARK   26  A    between atoms: _68  and  _70
REMARK   27  A    between atoms: _70  and  _71
REMARK   28  A    between atoms: _70  and  _73
REMARK   29  A    between atoms: _73  and  _74
REMARK   30  A    between atoms: _84  and  _86
REMARK   31  A    between atoms: _86  and  _87
REMARK   32  A    between atoms: _86  and  _89
REMARK   33  A    between atoms: _89  and  _90
REMARK   34  A    between atoms: _93  and  _95
REMARK   35  A    between atoms: _95  and  _96
REMARK   36  A    between atoms: _95  and  _98
REMARK   37  A    between atoms: _98  and  _99
REMARK   38  A    between atoms: _102  and  _104
REMARK   39  A    between atoms: _104  and  _105
REMARK   40  A    between atoms: _104  and  _107
REMARK   41  A    between atoms: _107  and  _108
REMARK   42  A    between atoms: _112  and  _113
REMARK   43  A    between atoms: _118  and  _120
REMARK   44  A    between atoms: _120  and  _121
REMARK   45  A    between atoms: _120  and  _123
REMARK   46  A    between atoms: _123  and  _124
REMARK   47  A    between atoms: _127  and  _129
REMARK   48  A    between atoms: _129  and  _130
REMARK   49  A    between atoms: _133  and  _135
REMARK   50  A    between atoms: _135  and  _136
REMARK   51  A    between atoms: _135  and  _138
REMARK   52  A    between atoms: _138  and  _139
REMARK   53  A    between atoms: _142  and  _144
REMARK   54  A    between atoms: _144  and  _145
REMARK   55  A    between atoms: _144  and  _147
REMARK   56  A    between atoms: _147  and  _148
REMARK   57  A    between atoms: _151  and  _153
REMARK   58  A    between atoms: _153  and  _154
REMARK   59  A    between atoms: _153  and  _156
REMARK   60  A    between atoms: _156  and  _157
REMARK   61  A    between atoms: _162  and  _164
REMARK   62  A    between atoms: _164  and  _165
REMARK   63  A    between atoms: _168  and  _170
REMARK   64  A    between atoms: _170  and  _171
REMARK   65  A    between atoms: _170  and  _173
REMARK   66  A    between atoms: _173  and  _174
REMARK   67  A    between atoms: _184  and  _186
REMARK   68  A    between atoms: _186  and  _187
REMARK   69  A    between atoms: _186  and  _189
REMARK   70  A    between atoms: _189  and  _190
REMARK   71  A    between atoms: _192  and  _194
REMARK   72  A    between atoms: _194  and  _195
REMARK   73  A    between atoms: _194  and  _197
REMARK   74  A    between atoms: _197  and  _198
REMARK   75  A    between atoms: _201  and  _203
REMARK   76  A    between atoms: _203  and  _204
REMARK   77  A    between atoms: _203  and  _206
REMARK   78  A    between atoms: _208  and  _210
REMARK   79  A    between atoms: _210  and  _211
REMARK   80  A    between atoms: _210  and  _213
REMARK   81  A    between atoms: _213  and  _214
REMARK   82  A    between atoms: _221  and  _222
REMARK   83  A    between atoms: _227  and  _229
REMARK   84  A    between atoms: _229  and  _230
REMARK   85  A    between atoms: _229  and  _232
REMARK   86  A    between atoms: _232  and  _233
REMARK   87  A    between atoms: _243  and  _245
REMARK   88  A    between atoms: _245  and  _246
REMARK   89  A    between atoms: _245  and  _248
REMARK   90  A    between atoms: _251  and  _253
REMARK   91  A    between atoms: _253  and  _254
REMARK   92  A    between atoms: _253  and  _256
REMARK   93  A    between atoms: _256  and  _257
REMARK   94  A    between atoms: _267  and  _269
REMARK   95  A    between atoms: _269  and  _270
REMARK   96  A    between atoms: _272  and  _274
REMARK   97  A    between atoms: _274  and  _275
REMARK   98  A    between atoms: _274  and  _277
REMARK   99  A    between atoms: _277  and  _278
REMARK  100  A    between atoms: _278  and  _279
REMARK  101  A    between atoms: _282  and  _284
REMARK  102  A    between atoms: _284  and  _285
REMARK  103  A    between atoms: _287  and  _289
REMARK  104  A    between atoms: _289  and  _290
REMARK  105  A    between atoms: _293  and  _295
REMARK  106  A    between atoms: _295  and  _296
REMARK  107  A    between atoms: _295  and  _298
REMARK  108  A    between atoms: _298  and  _299
REMARK  109  A    between atoms: _302  and  _304
REMARK  110  A    between atoms: _304  and  _305
REMARK  111  A    between atoms: _304  and  _307
REMARK  112  A    between atoms: _307  and  _308
REMARK  113  A    between atoms: _314  and  _316
REMARK  114  A    between atoms: _316  and  _317
REMARK  115  A    between atoms: _316  and  _319
REMARK  116  A    between atoms: _319  and  _320
REMARK  117  A    between atoms: _325  and  _326
REMARK  118  A    between atoms: _328  and  _330
REMARK  119  A    between atoms: _330  and  _331
REMARK  120  A    between atoms: _330  and  _333
REMARK  121  A    between atoms: _333  and  _334
REMARK  122  A    between atoms: _339  and  _341
REMARK  123  A    between atoms: _341  and  _342
REMARK  124  A    between atoms: _341  and  _344
REMARK  125  A    between atoms: _344  and  _345
REMARK  126  A    between atoms: _351  and  _353
REMARK  127  A    between atoms: _353  and  _354
REMARK  128  A    between atoms: _353  and  _356
REMARK  129  A    between atoms: _356  and  _357
REMARK  130  A    between atoms: _362  and  _364
REMARK  131  A    between atoms: _364  and  _365
REMARK  132  A    between atoms: _364  and  _367
REMARK  133  A    between atoms: _367  and  _368
REMARK  134  A    between atoms: _368  and  _369
REMARK  135  A    between atoms: _374  and  _376
REMARK  136  A    between atoms: _376  and  _377
REMARK  137  A    between atoms: _376  and  _379
REMARK  138  A    between atoms: _379  and  _380
REMARK  139  A    between atoms: _380  and  _381
REMARK  140  A    between atoms: _384  and  _386
REMARK  141  A    between atoms: _386  and  _387
REMARK  142  A    between atoms: _386  and  _389
REMARK  143  A    between atoms: _389  and  _390
REMARK  144  A    between atoms: _390  and  _391
REMARK  145  A    between atoms: _393  and  _395
REMARK  146  A    between atoms: _395  and  _396
REMARK  147  A    between atoms: _395  and  _398
REMARK  148  A    between atoms: _398  and  _399
REMARK  149  A    between atoms: _399  and  _400
REMARK  150  A    between atoms: _405  and  _407
REMARK  151  A    between atoms: _407  and  _408
REMARK  152  A    between atoms: _407  and  _410
REMARK  153  A    between atoms: _410  and  _411
REMARK  154  A    between atoms: _414  and  _416
REMARK  155  A    between atoms: _416  and  _417
REMARK  156  A    between atoms: _416  and  _419
REMARK  157  A    between atoms: _422  and  _424
REMARK  158  A    between atoms: _424  and  _425
REMARK  159  A    between atoms: _424  and  _427
REMARK  160  A    between atoms: _427  and  _428
REMARK  161  A    between atoms: _428  and  _429
REMARK  162  A    between atoms: _429  and  _430
REMARK  163  A    between atoms: _439  and  _441
REMARK  164  A    between atoms: _441  and  _442
REMARK  165  A    between atoms: _441  and  _444
REMARK  166  A    between atoms: _444  and  _445
REMARK  167  A    between atoms: _449  and  _450
REMARK                            x       y       z     vdW  Elec       q    Type
REMARK                         _______ _______ _______ _____ _____    ______ ____
ROOT
ATOM      1  CA  VAL A   2      39.713  -9.331  89.097  0.00  0.00    +0.148 C 
ENDROOT
BRANCH   1   4
ATOM      2  C   TRP A   1      40.315  -8.709  91.406  0.00  0.00    +0.239 C 
ATOM      3  O   TRP A   1      41.454  -9.184  91.364  0.00  0.00    -0.274 OA
ATOM      4  N   VAL A   2      39.430  -8.784  90.406  0.00  0.00    -0.297 N 
ATOM      5  H   VAL A   2      38.470  -8.424  90.582  0.00  0.00    +0.150 HD
BRANCH   2   6
ATOM      6  CA  TRP A   1      39.886  -7.904  92.646  0.00  0.00    +0.149 C 
BRANCH   6   7
ATOM      7  N   TRP A   1      40.149  -8.647  93.889  0.00  0.00    -0.238 NA
ATOM      8  H   TRP A   1      40.670  -8.162  94.647  0.00  0.00    +0.142 HD
ENDBRANCH   6   7
BRANCH   6   9
ATOM      9  CB  TRP A   1      40.647  -6.594  92.623  0.00  0.00    +0.054 C 
BRANCH   9  10
ATOM     10  CG  TRP A   1      40.094  -5.696  91.498  0.00  0.00    -0.002 A 
ATOM     11  CD2 TRP A   1      38.802  -5.041  91.470  0.00  0.00    +0.013 A 
ATOM     12  CE3 TRP A   1      37.737  -4.945  92.385  0.00  0.00    +0.001 A 
ATOM     13  CZ3 TRP A   1      36.588  -4.217  91.986  0.00  0.00    +0.000 A 
ATOM     14  CH2 TRP A   1      36.548  -3.555  90.740  0.00  0.00    +0.001 A 
ATOM     15  CZ2 TRP A   1      37.585  -3.635  89.851  0.00  0.00    +0.017 A 
ATOM     16  CE2 TRP A   1      38.679  -4.392  90.203  0.00  0.00    +0.056 A 
ATOM     17  NE1 TRP A   1      39.831  -4.644  89.500  0.00  0.00    -0.352 N 
ATOM     18  HE1 TRP A   1      40.037  -4.305  88.539  0.00  0.00    +0.166 HD
ATOM     19  CD1 TRP A   1      40.689  -5.434  90.287  0.00  0.00    +0.068 A 
ENDBRANCH   9  10
ENDBRANCH   6   9
ENDBRANCH   2   6
ENDBRANCH   1   4
BRANCH   1  20
ATOM     20  C   VAL A   2      39.191  -8.450  87.975  0.00  0.00    +0.241 C 
ATOM     21  O   VAL A   2      38.079  -7.874  88.061  0.00  0.00    -0.273 OA
ATOM     22  N   TRP A   3      40.038  -8.200  86.976  0.00  0.00    -0.298 N 
ATOM     23  H   TRP A   3      41.045  -8.434  87.089  0.00  0.00    +0.150 HD
BRANCH  22  24
ATOM     24  CA  TRP A   3      39.577  -7.603  85.726  0.00  0.00    +0.141 C 
BRANCH  24  25
ATOM     25  C   TRP A   3      39.105  -8.697  84.768  0.00  0.00    +0.227 C 
ATOM     26  O   TRP A   3      39.746  -9.775  84.696  0.00  0.00    -0.286 OA
ENDBRANCH  24  25
BRANCH  24  27
ATOM     27  CB  TRP A   3      40.675  -6.809  85.042  0.00  0.00    +0.056 C 
BRANCH  27  28
ATOM     28  CG  TRP A   3      41.451  -5.841  85.839  0.00  0.00    -0.002 A 
ATOM     29  CD1 TRP A   3      42.720  -6.022  86.343  0.00  0.00    +0.068 A 
ATOM     30  NE1 TRP A   3      43.146  -4.932  86.985  0.00  0.00    -0.352 N 
ATOM     31  HE1 TRP A   3      44.086  -4.802  87.411  0.00  0.00    +0.166 HD
ATOM     32  CE2 TRP A   3      42.129  -4.014  86.985  0.00  0.00    +0.056 A 
ATOM     33  CZ2 TRP A   3      42.061  -2.775  87.571  0.00  0.00    +0.017 A 
ATOM     34  CH2 TRP A   3      40.882  -2.051  87.388  0.00  0.00    +0.001 A 
ATOM     35  CZ3 TRP A   3      39.814  -2.579  86.705  0.00  0.00    +0.000 A 
ATOM     36  CE3 TRP A   3      39.876  -3.843  86.092  0.00  0.00    +0.001 A 
ATOM     37  CD2 TRP A   3      41.036  -4.595  86.277  0.00  0.00    +0.013 A 
ENDBRANCH  27  28
ENDBRANCH  24  27
ENDBRANCH  22  24
ENDBRANCH   1  20
BRANCH   1  38
ATOM     38  CB  VAL A   2      39.100 -10.784  88.981  0.00  0.00    +0.027 C 
ATOM     39  CG2 VAL A   2      39.570 -11.638  90.127  0.00  0.00    +0.002 C 
ATOM     40  CG1 VAL A   2      37.510 -10.708  88.901  0.00  0.00    +0.002 C 
ENDBRANCH   1  38
TORSDOF 11
REMARK  Name = ../refined-set-2016/3jup/3jup_pocket.pdb
REMARK  167 active torsions:
REMARK  status: ('A' for Active; 'I' for Inactive)
REMARK    1  A    between atoms: _1  and  _3
REMARK    2  A    between atoms: _3  and  _4
REMARK    3  A    between atoms: _3  and  _6
REMARK    4  A    between atoms: _6  and  _7
REMARK    5  A    between atoms: _12  and  _13
REMARK    6  A    between atoms: _15  and  _17
REMARK    7  A    between atoms: _17  and  _18
REMARK    8  A    between atoms: _17  and  _20
REMARK    9  A    between atoms: _20  and  _21
REMARK   10  A    between atoms: _21  and  _22
REMARK   11  A    between atoms: _22  and  _23
REMARK   12  A    between atoms: _32  and  _34
REMARK   13  A    between atoms: _34  and  _35
REMARK   14  A    between atoms: _34  and  _37
REMARK   15  A    between atoms: _37  and  _38
REMARK   16  A    between atoms: _38  and  _39
REMARK   17  A    between atoms: _39  and  _40
REMARK   18  A    between atoms: _49  and  _51
REMARK   19  A    between atoms: _51  and  _52
REMARK   20  A    between atoms: _54  and  _56
REMARK   21  A    between atoms: _56  and  _57
REMARK   22  A    between atoms: _59  and  _61
REMARK   23  A    between atoms: _61  and  _62
REMARK   24  A    between atoms: _61  and  _64
REMARK   25  A    between atoms: _64  and  _65
REMARK   26  A    between atoms: _68  and  _70
REMARK   27  A    between atoms: _70  and  _71
REMARK   28  A    between atoms: _70  and  _73
REMARK   29  A    between atoms: _73  and  _74
REMARK   30  A    between atoms: _84  and  _86
REMARK   31  A    between atoms: _86  and  _87
REMARK   32  A    between atoms: _86  and  _89
REMARK   33  A    between atoms: _89  and  _90
REMARK   34  A    between atoms: _93  and  _95
REMARK   35  A    between atoms: _95  and  _96
REMARK   36  A    between atoms: _95  and  _98
REMARK   37  A    between atoms: _98  and  _99
REMARK   38  A    between atoms: _102  and  _104
REMARK   39  A    between atoms: _104  and  _105
REMARK   40  A    between atoms: _104  and  _107
REMARK   41  A    between atoms: _107  and  _108
REMARK   42  A    between atoms: _112  and  _113
REMARK   43  A    between atoms: _118  and  _120
REMARK   44  A    between atoms: _120  and  _121
REMARK   45  A    between atoms: _120  and  _123
REMARK   46  A    between atoms: _123  and  _124
REMARK   47  A    between atoms: _127  and  _129
REMARK   48  A    between atoms: _129  and  _130
REMARK   49  A    between atoms: _133  and  _135
REMARK   50  A    between atoms: _135  and  _136
REMARK   51  A    between atoms: _135  and  _138
REMARK   52  A    between atoms: _138  and  _139
REMARK   53  A    between atoms: _142  and  _144
REMARK   54  A    between atoms: _144  and  _145
REMARK   55  A    between atoms: _144  and  _147
REMARK   56  A    between atoms: _147  and  _148
REMARK   57  A    between atoms: _151  and  _153
REMARK   58  A    between atoms: _153  and  _154
REMARK   59  A    between atoms: _153  and  _156
REMARK   60  A    between atoms: _156  and  _157
REMARK   61  A    between atoms: _162  and  _164
REMARK   62  A    between atoms: _164  and  _165
REMARK   63  A    between atoms: _168  and  _170
REMARK   64  A    between atoms: _170  and  _171
REMARK   65  A    between atoms: _170  and  _173
REMARK   66  A    between atoms: _173  and  _174
REMARK   67  A    between atoms: _184  and  _186
REMARK   68  A    between atoms: _186  and  _187
REMARK   69  A    between atoms: _186  and  _189
REMARK   70  A    between atoms: _189  and  _190
REMARK   71  A    between atoms: _192  and  _194
REMARK   72  A    between atoms: _194  and  _195
REMARK   73  A    between atoms: _194  and  _197
REMARK   74  A    between atoms: _197  and  _198
REMARK   75  A    between atoms: _201  and  _203
REMARK   76  A    between atoms: _203  and  _204
REMARK   77  A    between atoms: _203  and  _206
REMARK   78  A    between atoms: _208  and  _210
REMARK   79  A    between atoms: _210  and  _211
REMARK   80  A    between atoms: _210  and  _213
REMARK   81  A    between atoms: _213  and  _214
REMARK   82  A    between atoms: _221  and  _222
REMARK   83  A    between atoms: _227  and  _229
REMARK   84  A    between atoms: _229  and  _230
REMARK   85  A    between atoms: _229  and  _232
REMARK   86  A    between atoms: _232  and  _233
REMARK   87  A    between atoms: _243  and  _245
REMARK   88  A    between atoms: _245  and  _246
REMARK   89  A    between atoms: _245  and  _248
REMARK   90  A    between atoms: _251  and  _253
REMARK   91  A    between atoms: _253  and  _254
REMARK   92  A    between atoms: _253  and  _256
REMARK   93  A    between atoms: _256  and  _257
REMARK   94  A    between atoms: _267  and  _269
REMARK   95  A    between atoms: _269  and  _270
REMARK   96  A    between atoms: _272  and  _274
REMARK   97  A    between atoms: _274  and  _275
REMARK   98  A    between atoms: _274  and  _277
REMARK   99  A    between atoms: _277  and  _278
REMARK  100  A    between atoms: _278  and  _279
REMARK  101  A    between atoms: _282  and  _284
REMARK  102  A    between atoms: _284  and  _285
REMARK  103  A    between atoms: _287  and  _289
REMARK  104  A    between atoms: _289  and  _290
REMARK  105  A    between atoms: _293  and  _295
REMARK  106  A    between atoms: _295  and  _296
REMARK  107  A    between atoms: _295  and  _298
REMARK  108  A    between atoms: _298  and  _299
REMARK  109  A    between atoms: _302  and  _304
REMARK  110  A    between atoms: _304  and  _305
REMARK  111  A    between atoms: _304  and  _307
REMARK  112  A    between atoms: _307  and  _308
REMARK  113  A    between atoms: _314  and  _316
REMARK  114  A    between atoms: _316  and  _317
REMARK  115  A    between atoms: _316  and  _319
REMARK  116  A    between atoms: _319  and  _320
REMARK  117  A    between atoms: _325  and  _326
REMARK  118  A    between atoms: _328  and  _330
REMARK  119  A    between atoms: _330  and  _331
REMARK  120  A    between atoms: _330  and  _333
REMARK  121  A    between atoms: _333  and  _334
REMARK  122  A    between atoms: _339  and  _341
REMARK  123  A    between atoms: _341  and  _342
REMARK  124  A    between atoms: _341  and  _344
REMARK  125  A    between atoms: _344  and  _345
REMARK  126  A    between atoms: _351  and  _353
REMARK  127  A    between atoms: _353  and  _354
REMARK  128  A    between atoms: _353  and  _356
REMARK  129  A    between atoms: _356  and  _357
REMARK  130  A    between atoms: _362  and  _364
REMARK  131  A    between atoms: _364  and  _365
REMARK  132  A    between atoms: _364  and  _367
REMARK  133  A    between atoms: _367  and  _368
REMARK  134  A    between atoms: _368  and  _369
REMARK  135  A    between atoms: _374  and  _376
REMARK  136  A    between atoms: _376  and  _377
REMARK  137  A    between atoms: _376  and  _379
REMARK  138  A    between atoms: _379  and  _380
REMARK  139  A    between atoms: _380  and  _381
REMARK  140  A    between atoms: _384  and  _386
REMARK  141  A    between atoms: _386  and  _387
REMARK  142  A    between atoms: _386  and  _389
REMARK  143  A    between atoms: _389  and  _390
REMARK  144  A    between atoms: _390  and  _391
REMARK  145  A    between atoms: _393  and  _395
REMARK  146  A    between atoms: _395  and  _396
REMARK  147  A    between atoms: _395  and  _398
REMARK  148  A    between atoms: _398  and  _399
REMARK  149  A    between atoms: _399  and  _400
REMARK  150  A    between atoms: _405  and  _407
REMARK  151  A    between atoms: _407  and  _408
REMARK  152  A    between atoms: _407  and  _410
REMARK  153  A    between atoms: _410  and  _411
REMARK  154  A    between atoms: _414  and  _416
REMARK  155  A    between atoms: _416  and  _417
REMARK  156  A    between atoms: _416  and  _419
REMARK  157  A    between atoms: _422  and  _424
REMARK  158  A    between atoms: _424  and  _425
REMARK  159  A    between atoms: _424  and  _427
REMARK  160  A    between atoms: _427  and  _428
REMARK  161  A    between atoms: _428  and  _429
REMARK  162  A    between atoms: _429  and  _430
REMARK  163  A    between atoms: _439  and  _441
REMARK  164  A    between atoms: _441  and  _442
REMARK  165  A    between atoms: _441  and  _444
REMARK  166  A    between atoms: _444  and  _445
REMARK  167  A    between atoms: _449  and  _450
REMARK                            x       y       z     vdW  Elec       q    Type
REMARK                         _______ _______ _______ _____ _____    ______ ____
ROOT
ATOM      1  CA  GLY A   3      35.455  -7.774  93.870  0.00  0.00    +0.176 C 
ENDROOT
BRANCH   1   3
ATOM      2  C   GLU A   2      35.459  -7.300  91.474  0.00  0.00    +0.241 C 
ATOM      3  N   GLY A   3      34.926  -7.105  92.677  0.00  0.00    -0.295 N 
ATOM      4  H   GLY A   3      34.114  -6.462  92.774  0.00  0.00    +0.150 HD
ATOM      5  O   GLU A   2      36.402  -8.034  91.208  0.00  0.00    -0.273 OA
BRANCH   2   6
ATOM      6  CA  GLU A   2      34.716  -6.643  90.366  0.00  0.00    +0.149 C 
BRANCH   6   8
ATOM      7  C   GLY A   1      35.202  -5.601  88.240  0.00  0.00    +0.240 C 
ATOM      8  N   GLU A   2      35.500  -6.519  89.149  0.00  0.00    -0.297 N 
ATOM      9  H   GLU A   2      36.305  -7.158  88.989  0.00  0.00    +0.150 HD
ATOM     10  O   GLY A   1      34.200  -4.952  88.289  0.00  0.00    -0.274 OA
BRANCH   7  11
ATOM     11  CA  GLY A   1      36.180  -5.398  87.099  0.00  0.00    +0.169 C 
BRANCH  11  12
ATOM     12  N   GLY A   1      35.446  -5.007  85.919  0.00  0.00    -0.236 NA
ATOM     13  H   GLY A   1      34.514  -4.558  86.023  0.00  0.00    +0.142 HD
ENDBRANCH  11  12
ENDBRANCH   7  11
ENDBRANCH   6   8
BRANCH   6  14
ATOM     14  CB  GLU A   2      33.407  -7.421  90.196  0.00  0.00    +0.041 C 
BRANCH  14  15
ATOM     15  CG  GLU A   2      33.408  -8.719  89.695  0.00  0.00    +0.116 C 
BRANCH  15  16
ATOM     16  CD  GLU A   2      31.910  -9.197  89.595  0.00  0.00    +0.365 C 
ATOM     17  OE2 GLU A   2      31.364  -9.719  90.599  0.00  0.00    -0.246 OA
ATOM     18  OE1 GLU A   2      31.316  -8.962  88.550  0.00  0.00    -0.246 OA
ENDBRANCH  15  16
ENDBRANCH  14  15
ENDBRANCH   6  14
ENDBRANCH   2   6
ENDBRANCH   1   3
BRANCH   1  19
ATOM     19  C   GLY A   3      34.901  -7.147  95.094  0.00  0.00    +0.243 C 
ATOM     20  N   ALA A   4      35.224  -7.735  96.248  0.00  0.00    -0.297 N 
ATOM     21  H   ALA A   4      35.724  -8.647  96.238  0.00  0.00    +0.150 HD
ATOM     22  O   GLY A   3      34.188  -6.165  94.989  0.00  0.00    -0.273 OA
BRANCH  20  23
ATOM     23  CA  ALA A   4      34.887  -7.118  97.510  0.00  0.00    +0.149 C 
ATOM     24  CB  ALA A   4      35.258  -8.070  98.715  0.00  0.00    +0.031 C 
BRANCH  23  25
ATOM     25  C   ALA A   4      35.517  -5.737  97.676  0.00  0.00    +0.241 C 
ATOM     26  N   ILE A   5      34.756  -4.823  98.280  0.00  0.00    -0.298 N 
ATOM     27  H   ILE A   5      33.758  -5.042  98.476  0.00  0.00    +0.150 HD
ATOM     28  O   ALA A   4      36.664  -5.486  97.269  0.00  0.00    -0.273 OA
BRANCH  26  29
ATOM     29  CA  ILE A   5      35.285  -3.533  98.670  0.00  0.00    +0.137 C 
BRANCH  29  30
ATOM     30  C   ILE A   5      35.203  -3.414 100.192  0.00  0.00    +0.227 C 
ATOM     31  O   ILE A   5      34.115  -3.626 100.776  0.00  0.00    -0.286 OA
ENDBRANCH  29  30
BRANCH  29  32
ATOM     32  CB  ILE A   5      34.581  -2.338  97.947  0.00  0.00    +0.026 C 
ATOM     33  CG2 ILE A   5      33.079  -2.258  98.204  0.00  0.00    +0.002 C 
BRANCH  32  34
ATOM     34  CG1 ILE A   5      35.261  -1.020  98.280  0.00  0.00    +0.002 C 
ATOM     35  CD1 ILE A   5      34.754   0.238  97.465  0.00  0.00    +0.000 C 
ENDBRANCH  32  34
ENDBRANCH  29  32
ENDBRANCH  26  29
ENDBRANCH  23  25
ENDBRANCH  20  23
ENDBRANCH   1  19
TORSDOF 15
REMARK  Name = ../refined-set-2016/3jup/3jup_pocket.pdb
REMARK  167 active torsions:
REMARK  status: ('A' for Active; 'I' for Inactive)
REMARK    1  A    between atoms: _1  and  _3
REMARK    2  A    between atoms: _3  and  _4
REMARK    3  A    between atoms: _3  and  _6
REMARK    4  A    between atoms: _6  and  _7
REMARK    5  A    between atoms: _12  and  _13
REMARK    6  A    between atoms: _15  and  _17
REMARK    7  A    between atoms: _17  and  _18
REMARK    8  A    between atoms: _17  and  _20
REMARK    9  A    between atoms: _20  and  _21
REMARK   10  A    between atoms: _21  and  _22
REMARK   11  A    between atoms: _22  and  _23
REMARK   12  A    between atoms: _32  and  _34
REMARK   13  A    between atoms: _34  and  _35
REMARK   14  A    between atoms: _34  and  _37
REMARK   15  A    between atoms: _37  and  _38
REMARK   16  A    between atoms: _38  and  _39
REMARK   17  A    between atoms: _39  and  _40
REMARK   18  A    between atoms: _49  and  _51
REMARK   19  A    between atoms: _51  and  _52
REMARK   20  A    between atoms: _54  and  _56
REMARK   21  A    between atoms: _56  and  _57
REMARK   22  A    between atoms: _59  and  _61
REMARK   23  A    between atoms: _61  and  _62
REMARK   24  A    between atoms: _61  and  _64
REMARK   25  A    between atoms: _64  and  _65
REMARK   26  A    between atoms: _68  and  _70
REMARK   27  A    between atoms: _70  and  _71
REMARK   28  A    between atoms: _70  and  _73
REMARK   29  A    between atoms: _73  and  _74
REMARK   30  A    between atoms: _84  and  _86
REMARK   31  A    between atoms: _86  and  _87
REMARK   32  A    between atoms: _86  and  _89
REMARK   33  A    between atoms: _89  and  _90
REMARK   34  A    between atoms: _93  and  _95
REMARK   35  A    between atoms: _95  and  _96
REMARK   36  A    between atoms: _95  and  _98
REMARK   37  A    between atoms: _98  and  _99
REMARK   38  A    between atoms: _102  and  _104
REMARK   39  A    between atoms: _104  and  _105
REMARK   40  A    between atoms: _104  and  _107
REMARK   41  A    between atoms: _107  and  _108
REMARK   42  A    between atoms: _112  and  _113
REMARK   43  A    between atoms: _118  and  _120
REMARK   44  A    between atoms: _120  and  _121
REMARK   45  A    between atoms: _120  and  _123
REMARK   46  A    between atoms: _123  and  _124
REMARK   47  A    between atoms: _127  and  _129
REMARK   48  A    between atoms: _129  and  _130
REMARK   49  A    between atoms: _133  and  _135
REMARK   50  A    between atoms: _135  and  _136
REMARK   51  A    between atoms: _135  and  _138
REMARK   52  A    between atoms: _138  and  _139
REMARK   53  A    between atoms: _142  and  _144
REMARK   54  A    between atoms: _144  and  _145
REMARK   55  A    between atoms: _144  and  _147
REMARK   56  A    between atoms: _147  and  _148
REMARK   57  A    between atoms: _151  and  _153
REMARK   58  A    between atoms: _153  and  _154
REMARK   59  A    between atoms: _153  and  _156
REMARK   60  A    between atoms: _156  and  _157
REMARK   61  A    between atoms: _162  and  _164
REMARK   62  A    between atoms: _164  and  _165
REMARK   63  A    between atoms: _168  and  _170
REMARK   64  A    between atoms: _170  and  _171
REMARK   65  A    between atoms: _170  and  _173
REMARK   66  A    between atoms: _173  and  _174
REMARK   67  A    between atoms: _184  and  _186
REMARK   68  A    between atoms: _186  and  _187
REMARK   69  A    between atoms: _186  and  _189
REMARK   70  A    between atoms: _189  and  _190
REMARK   71  A    between atoms: _192  and  _194
REMARK   72  A    between atoms: _194  and  _195
REMARK   73  A    between atoms: _194  and  _197
REMARK   74  A    between atoms: _197  and  _198
REMARK   75  A    between atoms: _201  and  _203
REMARK   76  A    between atoms: _203  and  _204
REMARK   77  A    between atoms: _203  and  _206
REMARK   78  A    between atoms: _208  and  _210
REMARK   79  A    between atoms: _210  and  _211
REMARK   80  A    between atoms: _210  and  _213
REMARK   81  A    between atoms: _213  and  _214
REMARK   82  A    between atoms: _221  and  _222
REMARK   83  A    between atoms: _227  and  _229
REMARK   84  A    between atoms: _229  and  _230
REMARK   85  A    between atoms: _229  and  _232
REMARK   86  A    between atoms: _232  and  _233
REMARK   87  A    between atoms: _243  and  _245
REMARK   88  A    between atoms: _245  and  _246
REMARK   89  A    between atoms: _245  and  _248
REMARK   90  A    between atoms: _251  and  _253
REMARK   91  A    between atoms: _253  and  _254
REMARK   92  A    between atoms: _253  and  _256
REMARK   93  A    between atoms: _256  and  _257
REMARK   94  A    between atoms: _267  and  _269
REMARK   95  A    between atoms: _269  and  _270
REMARK   96  A    between atoms: _272  and  _274
REMARK   97  A    between atoms: _274  and  _275
REMARK   98  A    between atoms: _274  and  _277
REMARK   99  A    between atoms: _277  and  _278
REMARK  100  A    between atoms: _278  and  _279
REMARK  101  A    between atoms: _282  and  _284
REMARK  102  A    between atoms: _284  and  _285
REMARK  103  A    between atoms: _287  and  _289
REMARK  104  A    between atoms: _289  and  _290
REMARK  105  A    between atoms: _293  and  _295
REMARK  106  A    between atoms: _295  and  _296
REMARK  107  A    between atoms: _295  and  _298
REMARK  108  A    between atoms: _298  and  _299
REMARK  109  A    between atoms: _302  and  _304
REMARK  110  A    between atoms: _304  and  _305
REMARK  111  A    between atoms: _304  and  _307
REMARK  112  A    between atoms: _307  and  _308
REMARK  113  A    between atoms: _314  and  _316
REMARK  114  A    between atoms: _316  and  _317
REMARK  115  A    between atoms: _316  and  _319
REMARK  116  A    between atoms: _319  and  _320
REMARK  117  A    between atoms: _325  and  _326
REMARK  118  A    between atoms: _328  and  _330
REMARK  119  A    between atoms: _330  and  _331
REMARK  120  A    between atoms: _330  and  _333
REMARK  121  A    between atoms: _333  and  _334
REMARK  122  A    between atoms: _339  and  _341
REMARK  123  A    between atoms: _341  and  _342
REMARK  124  A    between atoms: _341  and  _344
REMARK  125  A    between atoms: _344  and  _345
REMARK  126  A    between atoms: _351  and  _353
REMARK  127  A    between atoms: _353  and  _354
REMARK  128  A    between atoms: _353  and  _356
REMARK  129  A    between atoms: _356  and  _357
REMARK  130  A    between atoms: _362  and  _364
REMARK  131  A    between atoms: _364  and  _365
REMARK  132  A    between atoms: _364  and  _367
REMARK  133  A    between atoms: _367  and  _368
REMARK  134  A    between atoms: _368  and  _369
REMARK  135  A    between atoms: _374  and  _376
REMARK  136  A    between atoms: _376  and  _377
REMARK  137  A    between atoms: _376  and  _379
REMARK  138  A    between atoms: _379  and  _380
REMARK  139  A    between atoms: _380  and  _381
REMARK  140  A    between atoms: _384  and  _386
REMARK  141  A    between atoms: _386  and  _387
REMARK  142  A    between atoms: _386  and  _389
REMARK  143  A    between atoms: _389  and  _390
REMARK  144  A    between atoms: _390  and  _391
REMARK  145  A    between atoms: _393  and  _395
REMARK  146  A    between atoms: _395  and  _396
REMARK  147  A    between atoms: _395  and  _398
REMARK  148  A    between atoms: _398  and  _399
REMARK  149  A    between atoms: _399  and  _400
REMARK  150  A    between atoms: _405  and  _407
REMARK  151  A    between atoms: _407  and  _408
REMARK  152  A    between atoms: _407  and  _410
REMARK  153  A    between atoms: _410  and  _411
REMARK  154  A    between atoms: _414  and  _416
REMARK  155  A    between atoms: _416  and  _417
REMARK  156  A    between atoms: _416  and  _419
REMARK  157  A    between atoms: _422  and  _424
REMARK  158  A    between atoms: _424  and  _425
REMARK  159  A    between atoms: _424  and  _427
REMARK  160  A    between atoms: _427  and  _428
REMARK  161  A    between atoms: _428  and  _429
REMARK  162  A    between atoms: _429  and  _430
REMARK  163  A    between atoms: _439  and  _441
REMARK  164  A    between atoms: _441  and  _442
REMARK  165  A    between atoms: _441  and  _444
REMARK  166  A    between atoms: _444  and  _445
REMARK  167  A    between atoms: _449  and  _450
REMARK                            x       y       z     vdW  Elec       q    Type
REMARK                         _______ _______ _______ _____ _____    ______ ____
ROOT
ATOM      1  CB  PHE A   1      36.303   1.554 102.477  0.00  0.00    +0.051 C 
ENDROOT
BRANCH   1   2
ATOM      2  CG  PHE A   1      36.866   1.836 101.070  0.00  0.00    -0.020 A 
ATOM      3  CD2 PHE A   1      37.776   0.999 100.441  0.00  0.00    -0.004 A 
ATOM      4  CE2 PHE A   1      38.263   1.330  99.126  0.00  0.00    -0.000 A 
ATOM      5  CZ  PHE A   1      37.843   2.509  98.529  0.00  0.00    -0.000 A 
ATOM      6  CE1 PHE A   1      36.983   3.317  99.143  0.00  0.00    -0.000 A 
ATOM      7  CD1 PHE A   1      36.517   2.998 100.431  0.00  0.00    -0.004 A 
ENDBRANCH   1   2
BRANCH   1   8
ATOM      8  CA  PHE A   1      36.982   0.445 103.227  0.00  0.00    +0.137 C 
BRANCH   8   9
ATOM      9  N   PHE A   1      36.438  -0.855 102.872  0.00  0.00    -0.239 NA
ATOM     10  H   PHE A   1      35.409  -0.961 102.762  0.00  0.00    +0.142 HD
ENDBRANCH   8   9
BRANCH   8  11
ATOM     11  C   PHE A   1      36.710   0.663 104.716  0.00  0.00    +0.224 C 
ATOM     12  O   PHE A   1      35.640   0.300 105.182  0.00  0.00    -0.287 OA
ENDBRANCH   8  11
ENDBRANCH   1   8
TORSDOF 4
REMARK  Name = ../refined-set-2016/3jup/3jup_pocket.pdb
REMARK  167 active torsions:
REMARK  status: ('A' for Active; 'I' for Inactive)
REMARK    1  A    between atoms: _1  and  _3
REMARK    2  A    between atoms: _3  and  _4
REMARK    3  A    between atoms: _3  and  _6
REMARK    4  A    between atoms: _6  and  _7
REMARK    5  A    between atoms: _12  and  _13
REMARK    6  A    between atoms: _15  and  _17
REMARK    7  A    between atoms: _17  and  _18
REMARK    8  A    between atoms: _17  and  _20
REMARK    9  A    between atoms: _20  and  _21
REMARK   10  A    between atoms: _21  and  _22
REMARK   11  A    between atoms: _22  and  _23
REMARK   12  A    between atoms: _32  and  _34
REMARK   13  A    between atoms: _34  and  _35
REMARK   14  A    between atoms: _34  and  _37
REMARK   15  A    between atoms: _37  and  _38
REMARK   16  A    between atoms: _38  and  _39
REMARK   17  A    between atoms: _39  and  _40
REMARK   18  A    between atoms: _49  and  _51
REMARK   19  A    between atoms: _51  and  _52
REMARK   20  A    between atoms: _54  and  _56
REMARK   21  A    between atoms: _56  and  _57
REMARK   22  A    between atoms: _59  and  _61
REMARK   23  A    between atoms: _61  and  _62
REMARK   24  A    between atoms: _61  and  _64
REMARK   25  A    between atoms: _64  and  _65
REMARK   26  A    between atoms: _68  and  _70
REMARK   27  A    between atoms: _70  and  _71
REMARK   28  A    between atoms: _70  and  _73
REMARK   29  A    between atoms: _73  and  _74
REMARK   30  A    between atoms: _84  and  _86
REMARK   31  A    between atoms: _86  and  _87
REMARK   32  A    between atoms: _86  and  _89
REMARK   33  A    between atoms: _89  and  _90
REMARK   34  A    between atoms: _93  and  _95
REMARK   35  A    between atoms: _95  and  _96
REMARK   36  A    between atoms: _95  and  _98
REMARK   37  A    between atoms: _98  and  _99
REMARK   38  A    between atoms: _102  and  _104
REMARK   39  A    between atoms: _104  and  _105
REMARK   40  A    between atoms: _104  and  _107
REMARK   41  A    between atoms: _107  and  _108
REMARK   42  A    between atoms: _112  and  _113
REMARK   43  A    between atoms: _118  and  _120
REMARK   44  A    between atoms: _120  and  _121
REMARK   45  A    between atoms: _120  and  _123
REMARK   46  A    between atoms: _123  and  _124
REMARK   47  A    between atoms: _127  and  _129
REMARK   48  A    between atoms: _129  and  _130
REMARK   49  A    between atoms: _133  and  _135
REMARK   50  A    between atoms: _135  and  _136
REMARK   51  A    between atoms: _135  and  _138
REMARK   52  A    between atoms: _138  and  _139
REMARK   53  A    between atoms: _142  and  _144
REMARK   54  A    between atoms: _144  and  _145
REMARK   55  A    between atoms: _144  and  _147
REMARK   56  A    between atoms: _147  and  _148
REMARK   57  A    between atoms: _151  and  _153
REMARK   58  A    between atoms: _153  and  _154
REMARK   59  A    between atoms: _153  and  _156
REMARK   60  A    between atoms: _156  and  _157
REMARK   61  A    between atoms: _162  and  _164
REMARK   62  A    between atoms: _164  and  _165
REMARK   63  A    between atoms: _168  and  _170
REMARK   64  A    between atoms: _170  and  _171
REMARK   65  A    between atoms: _170  and  _173
REMARK   66  A    between atoms: _173  and  _174
REMARK   67  A    between atoms: _184  and  _186
REMARK   68  A    between atoms: _186  and  _187
REMARK   69  A    between atoms: _186  and  _189
REMARK   70  A    between atoms: _189  and  _190
REMARK   71  A    between atoms: _192  and  _194
REMARK   72  A    between atoms: _194  and  _195
REMARK   73  A    between atoms: _194  and  _197
REMARK   74  A    between atoms: _197  and  _198
REMARK   75  A    between atoms: _201  and  _203
REMARK   76  A    between atoms: _203  and  _204
REMARK   77  A    between atoms: _203  and  _206
REMARK   78  A    between atoms: _208  and  _210
REMARK   79  A    between atoms: _210  and  _211
REMARK   80  A    between atoms: _210  and  _213
REMARK   81  A    between atoms: _213  and  _214
REMARK   82  A    between atoms: _221  and  _222
REMARK   83  A    between atoms: _227  and  _229
REMARK   84  A    between atoms: _229  and  _230
REMARK   85  A    between atoms: _229  and  _232
REMARK   86  A    between atoms: _232  and  _233
REMARK   87  A    between atoms: _243  and  _245
REMARK   88  A    between atoms: _245  and  _246
REMARK   89  A    between atoms: _245  and  _248
REMARK   90  A    between atoms: _251  and  _253
REMARK   91  A    between atoms: _253  and  _254
REMARK   92  A    between atoms: _253  and  _256
REMARK   93  A    between atoms: _256  and  _257
REMARK   94  A    between atoms: _267  and  _269
REMARK   95  A    between atoms: _269  and  _270
REMARK   96  A    between atoms: _272  and  _274
REMARK   97  A    between atoms: _274  and  _275
REMARK   98  A    between atoms: _274  and  _277
REMARK   99  A    between atoms: _277  and  _278
REMARK  100  A    between atoms: _278  and  _279
REMARK  101  A    between atoms: _282  and  _284
REMARK  102  A    between atoms: _284  and  _285
REMARK  103  A    between atoms: _287  and  _289
REMARK  104  A    between atoms: _289  and  _290
REMARK  105  A    between atoms: _293  and  _295
REMARK  106  A    between atoms: _295  and  _296
REMARK  107  A    between atoms: _295  and  _298
REMARK  108  A    between atoms: _298  and  _299
REMARK  109  A    between atoms: _302  and  _304
REMARK  110  A    between atoms: _304  and  _305
REMARK  111  A    between atoms: _304  and  _307
REMARK  112  A    between atoms: _307  and  _308
REMARK  113  A    between atoms: _314  and  _316
REMARK  114  A    between atoms: _316  and  _317
REMARK  115  A    between atoms: _316  and  _319
REMARK  116  A    between atoms: _319  and  _320
REMARK  117  A    between atoms: _325  and  _326
REMARK  118  A    between atoms: _328  and  _330
REMARK  119  A    between atoms: _330  and  _331
REMARK  120  A    between atoms: _330  and  _333
REMARK  121  A    between atoms: _333  and  _334
REMARK  122  A    between atoms: _339  and  _341
REMARK  123  A    between atoms: _341  and  _342
REMARK  124  A    between atoms: _341  and  _344
REMARK  125  A    between atoms: _344  and  _345
REMARK  126  A    between atoms: _351  and  _353
REMARK  127  A    between atoms: _353  and  _354
REMARK  128  A    between atoms: _353  and  _356
REMARK  129  A    between atoms: _356  and  _357
REMARK  130  A    between atoms: _362  and  _364
REMARK  131  A    between atoms: _364  and  _365
REMARK  132  A    between atoms: _364  and  _367
REMARK  133  A    between atoms: _367  and  _368
REMARK  134  A    between atoms: _368  and  _369
REMARK  135  A    between atoms: _374  and  _376
REMARK  136  A    between atoms: _376  and  _377
REMARK  137  A    between atoms: _376  and  _379
REMARK  138  A    between atoms: _379  and  _380
REMARK  139  A    between atoms: _380  and  _381
REMARK  140  A    between atoms: _384  and  _386
REMARK  141  A    between atoms: _386  and  _387
REMARK  142  A    between atoms: _386  and  _389
REMARK  143  A    between atoms: _389  and  _390
REMARK  144  A    between atoms: _390  and  _391
REMARK  145  A    between atoms: _393  and  _395
REMARK  146  A    between atoms: _395  and  _396
REMARK  147  A    between atoms: _395  and  _398
REMARK  148  A    between atoms: _398  and  _399
REMARK  149  A    between atoms: _399  and  _400
REMARK  150  A    between atoms: _405  and  _407
REMARK  151  A    between atoms: _407  and  _408
REMARK  152  A    between atoms: _407  and  _410
REMARK  153  A    between atoms: _410  and  _411
REMARK  154  A    between atoms: _414  and  _416
REMARK  155  A    between atoms: _416  and  _417
REMARK  156  A    between atoms: _416  and  _419
REMARK  157  A    between atoms: _422  and  _424
REMARK  158  A    between atoms: _424  and  _425
REMARK  159  A    between atoms: _424  and  _427
REMARK  160  A    between atoms: _427  and  _428
REMARK  161  A    between atoms: _428  and  _429
REMARK  162  A    between atoms: _429  and  _430
REMARK  163  A    between atoms: _439  and  _441
REMARK  164  A    between atoms: _441  and  _442
REMARK  165  A    between atoms: _441  and  _444
REMARK  166  A    between atoms: _444  and  _445
REMARK  167  A    between atoms: _449  and  _450
REMARK                            x       y       z     vdW  Elec       q    Type
REMARK                         _______ _______ _______ _____ _____    ______ ____
ROOT
ATOM      1  CG  TYR A   1      33.776  -1.426  93.325  0.00  0.00    -0.020 A 
ATOM      2  CD2 TYR A   1      35.117  -1.214  93.100  0.00  0.00    -0.001 A 
ATOM      3  CE2 TYR A   1      35.568  -0.217  92.242  0.00  0.00    +0.036 A 
ATOM      4  CZ  TYR A   1      34.638   0.625  91.610  0.00  0.00    +0.134 A 
ATOM      5  CE1 TYR A   1      33.286   0.425  91.802  0.00  0.00    +0.036 A 
ATOM      6  CD1 TYR A   1      32.860  -0.600  92.685  0.00  0.00    -0.001 A 
ENDROOT
BRANCH   4   7
ATOM      7  OH  TYR A   1      35.036   1.586  90.767  0.00  0.00    -0.506 OA
ATOM      8  HH  TYR A   1      35.630   2.217  91.245  0.00  0.00    +0.292 HD
ENDBRANCH   4   7
BRANCH   1   9
ATOM      9  CB  TYR A   1      33.325  -2.522  94.229  0.00  0.00    +0.051 C 
BRANCH   9  10
ATOM     10  CA  TYR A   1      32.085  -3.305  93.866  0.00  0.00    +0.137 C 
BRANCH  10  11
ATOM     11  N   TYR A   1      31.906  -4.372  94.804  0.00  0.00    -0.239 NA
ATOM     12  H   TYR A   1      32.751  -4.878  95.137  0.00  0.00    +0.142 HD
ENDBRANCH  10  11
BRANCH  10  13
ATOM     13  C   TYR A   1      32.253  -3.945  92.449  0.00  0.00    +0.224 C 
ATOM     14  O   TYR A   1      33.038  -4.885  92.296  0.00  0.00    -0.287 OA
ENDBRANCH  10  13
ENDBRANCH   9  10
ENDBRANCH   1   9
TORSDOF 5
REMARK  Name = ../refined-set-2016/3jup/3jup_pocket.pdb
REMARK  167 active torsions:
REMARK  status: ('A' for Active; 'I' for Inactive)
REMARK    1  A    between atoms: _1  and  _3
REMARK    2  A    between atoms: _3  and  _4
REMARK    3  A    between atoms: _3  and  _6
REMARK    4  A    between atoms: _6  and  _7
REMARK    5  A    between atoms: _12  and  _13
REMARK    6  A    between atoms: _15  and  _17
REMARK    7  A    between atoms: _17  and  _18
REMARK    8  A    between atoms: _17  and  _20
REMARK    9  A    between atoms: _20  and  _21
REMARK   10  A    between atoms: _21  and  _22
REMARK   11  A    between atoms: _22  and  _23
REMARK   12  A    between atoms: _32  and  _34
REMARK   13  A    between atoms: _34  and  _35
REMARK   14  A    between atoms: _34  and  _37
REMARK   15  A    between atoms: _37  and  _38
REMARK   16  A    between atoms: _38  and  _39
REMARK   17  A    between atoms: _39  and  _40
REMARK   18  A    between atoms: _49  and  _51
REMARK   19  A    between atoms: _51  and  _52
REMARK   20  A    between atoms: _54  and  _56
REMARK   21  A    between atoms: _56  and  _57
REMARK   22  A    between atoms: _59  and  _61
REMARK   23  A    between atoms: _61  and  _62
REMARK   24  A    between atoms: _61  and  _64
REMARK   25  A    between atoms: _64  and  _65
REMARK   26  A    between atoms: _68  and  _70
REMARK   27  A    between atoms: _70  and  _71
REMARK   28  A    between atoms: _70  and  _73
REMARK   29  A    between atoms: _73  and  _74
REMARK   30  A    between atoms: _84  and  _86
REMARK   31  A    between atoms: _86  and  _87
REMARK   32  A    between atoms: _86  and  _89
REMARK   33  A    between atoms: _89  and  _90
REMARK   34  A    between atoms: _93  and  _95
REMARK   35  A    between atoms: _95  and  _96
REMARK   36  A    between atoms: _95  and  _98
REMARK   37  A    between atoms: _98  and  _99
REMARK   38  A    between atoms: _102  and  _104
REMARK   39  A    between atoms: _104  and  _105
REMARK   40  A    between atoms: _104  and  _107
REMARK   41  A    between atoms: _107  and  _108
REMARK   42  A    between atoms: _112  and  _113
REMARK   43  A    between atoms: _118  and  _120
REMARK   44  A    between atoms: _120  and  _121
REMARK   45  A    between atoms: _120  and  _123
REMARK   46  A    between atoms: _123  and  _124
REMARK   47  A    between atoms: _127  and  _129
REMARK   48  A    between atoms: _129  and  _130
REMARK   49  A    between atoms: _133  and  _135
REMARK   50  A    between atoms: _135  and  _136
REMARK   51  A    between atoms: _135  and  _138
REMARK   52  A    between atoms: _138  and  _139
REMARK   53  A    between atoms: _142  and  _144
REMARK   54  A    between atoms: _144  and  _145
REMARK   55  A    between atoms: _144  and  _147
REMARK   56  A    between atoms: _147  and  _148
REMARK   57  A    between atoms: _151  and  _153
REMARK   58  A    between atoms: _153  and  _154
REMARK   59  A    between atoms: _153  and  _156
REMARK   60  A    between atoms: _156  and  _157
REMARK   61  A    between atoms: _162  and  _164
REMARK   62  A    between atoms: _164  and  _165
REMARK   63  A    between atoms: _168  and  _170
REMARK   64  A    between atoms: _170  and  _171
REMARK   65  A    between atoms: _170  and  _173
REMARK   66  A    between atoms: _173  and  _174
REMARK   67  A    between atoms: _184  and  _186
REMARK   68  A    between atoms: _186  and  _187
REMARK   69  A    between atoms: _186  and  _189
REMARK   70  A    between atoms: _189  and  _190
REMARK   71  A    between atoms: _192  and  _194
REMARK   72  A    between atoms: _194  and  _195
REMARK   73  A    between atoms: _194  and  _197
REMARK   74  A    between atoms: _197  and  _198
REMARK   75  A    between atoms: _201  and  _203
REMARK   76  A    between atoms: _203  and  _204
REMARK   77  A    between atoms: _203  and  _206
REMARK   78  A    between atoms: _208  and  _210
REMARK   79  A    between atoms: _210  and  _211
REMARK   80  A    between atoms: _210  and  _213
REMARK   81  A    between atoms: _213  and  _214
REMARK   82  A    between atoms: _221  and  _222
REMARK   83  A    between atoms: _227  and  _229
REMARK   84  A    between atoms: _229  and  _230
REMARK   85  A    between atoms: _229  and  _232
REMARK   86  A    between atoms: _232  and  _233
REMARK   87  A    between atoms: _243  and  _245
REMARK   88  A    between atoms: _245  and  _246
REMARK   89  A    between atoms: _245  and  _248
REMARK   90  A    between atoms: _251  and  _253
REMARK   91  A    between atoms: _253  and  _254
REMARK   92  A    between atoms: _253  and  _256
REMARK   93  A    between atoms: _256  and  _257
REMARK   94  A    between atoms: _267  and  _269
REMARK   95  A    between atoms: _269  and  _270
REMARK   96  A    between atoms: _272  and  _274
REMARK   97  A    between atoms: _274  and  _275
REMARK   98  A    between atoms: _274  and  _277
REMARK   99  A    between atoms: _277  and  _278
REMARK  100  A    between atoms: _278  and  _279
REMARK  101  A    between atoms: _282  and  _284
REMARK  102  A    between atoms: _284  and  _285
REMARK  103  A    between atoms: _287  and  _289
REMARK  104  A    between atoms: _289  and  _290
REMARK  105  A    between atoms: _293  and  _295
REMARK  106  A    between atoms: _295  and  _296
REMARK  107  A    between atoms: _295  and  _298
REMARK  108  A    between atoms: _298  and  _299
REMARK  109  A    between atoms: _302  and  _304
REMARK  110  A    between atoms: _304  and  _305
REMARK  111  A    between atoms: _304  and  _307
REMARK  112  A    between atoms: _307  and  _308
REMARK  113  A    between atoms: _314  and  _316
REMARK  114  A    between atoms: _316  and  _317
REMARK  115  A    between atoms: _316  and  _319
REMARK  116  A    between atoms: _319  and  _320
REMARK  117  A    between atoms: _325  and  _326
REMARK  118  A    between atoms: _328  and  _330
REMARK  119  A    between atoms: _330  and  _331
REMARK  120  A    between atoms: _330  and  _333
REMARK  121  A    between atoms: _333  and  _334
REMARK  122  A    between atoms: _339  and  _341
REMARK  123  A    between atoms: _341  and  _342
REMARK  124  A    between atoms: _341  and  _344
REMARK  125  A    between atoms: _344  and  _345
REMARK  126  A    between atoms: _351  and  _353
REMARK  127  A    between atoms: _353  and  _354
REMARK  128  A    between atoms: _353  and  _356
REMARK  129  A    between atoms: _356  and  _357
REMARK  130  A    between atoms: _362  and  _364
REMARK  131  A    between atoms: _364  and  _365
REMARK  132  A    between atoms: _364  and  _367
REMARK  133  A    between atoms: _367  and  _368
REMARK  134  A    between atoms: _368  and  _369
REMARK  135  A    between atoms: _374  and  _376
REMARK  136  A    between atoms: _376  and  _377
REMARK  137  A    between atoms: _376  and  _379
REMARK  138  A    between atoms: _379  and  _380
REMARK  139  A    between atoms: _380  and  _381
REMARK  140  A    between atoms: _384  and  _386
REMARK  141  A    between atoms: _386  and  _387
REMARK  142  A    between atoms: _386  and  _389
REMARK  143  A    between atoms: _389  and  _390
REMARK  144  A    between atoms: _390  and  _391
REMARK  145  A    between atoms: _393  and  _395
REMARK  146  A    between atoms: _395  and  _396
REMARK  147  A    between atoms: _395  and  _398
REMARK  148  A    between atoms: _398  and  _399
REMARK  149  A    between atoms: _399  and  _400
REMARK  150  A    between atoms: _405  and  _407
REMARK  151  A    between atoms: _407  and  _408
REMARK  152  A    between atoms: _407  and  _410
REMARK  153  A    between atoms: _410  and  _411
REMARK  154  A    between atoms: _414  and  _416
REMARK  155  A    between atoms: _416  and  _417
REMARK  156  A    between atoms: _416  and  _419
REMARK  157  A    between atoms: _422  and  _424
REMARK  158  A    between atoms: _424  and  _425
REMARK  159  A    between atoms: _424  and  _427
REMARK  160  A    between atoms: _427  and  _428
REMARK  161  A    between atoms: _428  and  _429
REMARK  162  A    between atoms: _429  and  _430
REMARK  163  A    between atoms: _439  and  _441
REMARK  164  A    between atoms: _441  and  _442
REMARK  165  A    between atoms: _441  and  _444
REMARK  166  A    between atoms: _444  and  _445
REMARK  167  A    between atoms: _449  and  _450
REMARK                            x       y       z     vdW  Elec       q    Type
REMARK                         _______ _______ _______ _____ _____    ______ ____
ROOT
ATOM      1  CB  ASN A   1      33.179  -0.146  87.998  0.00  0.00    +0.110 C 
ENDROOT
BRANCH   1   2
ATOM      2  CG  ASN A   1      32.580   1.254  87.905  0.00  0.00    +0.221 C 
ATOM      3  OD1 ASN A   1      32.951   2.152  88.682  0.00  0.00    -0.275 OA
ATOM      4  ND2 ASN A   1      31.721   1.471  86.946  0.00  0.00    -0.329 N 
ATOM      5 HD21 ASN A   1      31.322   2.422  86.811  0.00  0.00    +0.145 HD
ATOM      6 HD22 ASN A   1      31.436   0.693  86.317  0.00  0.00    +0.145 HD
ENDBRANCH   1   2
BRANCH   1   7
ATOM      7  CA  ASN A   1      32.291  -1.243  87.386  0.00  0.00    +0.142 C 
BRANCH   7   8
ATOM      8  N   ASN A   1      32.329  -2.393  88.257  0.00  0.00    -0.239 NA
ATOM      9  H   ASN A   1      32.998  -3.164  88.058  0.00  0.00    +0.142 HD
ENDBRANCH   7   8
BRANCH   7  10
ATOM     10  C   ASN A   1      32.774  -1.622  85.930  0.00  0.00    +0.225 C 
ATOM     11  O   ASN A   1      33.214  -2.770  85.660  0.00  0.00    -0.287 OA
ENDBRANCH   7  10
ENDBRANCH   1   7
TORSDOF 4
REMARK  Name = ../refined-set-2016/3jup/3jup_pocket.pdb
REMARK  167 active torsions:
REMARK  status: ('A' for Active; 'I' for Inactive)
REMARK    1  A    between atoms: _1  and  _3
REMARK    2  A    between atoms: _3  and  _4
REMARK    3  A    between atoms: _3  and  _6
REMARK    4  A    between atoms: _6  and  _7
REMARK    5  A    between atoms: _12  and  _13
REMARK    6  A    between atoms: _15  and  _17
REMARK    7  A    between atoms: _17  and  _18
REMARK    8  A    between atoms: _17  and  _20
REMARK    9  A    between atoms: _20  and  _21
REMARK   10  A    between atoms: _21  and  _22
REMARK   11  A    between atoms: _22  and  _23
REMARK   12  A    between atoms: _32  and  _34
REMARK   13  A    between atoms: _34  and  _35
REMARK   14  A    between atoms: _34  and  _37
REMARK   15  A    between atoms: _37  and  _38
REMARK   16  A    between atoms: _38  and  _39
REMARK   17  A    between atoms: _39  and  _40
REMARK   18  A    between atoms: _49  and  _51
REMARK   19  A    between atoms: _51  and  _52
REMARK   20  A    between atoms: _54  and  _56
REMARK   21  A    between atoms: _56  and  _57
REMARK   22  A    between atoms: _59  and  _61
REMARK   23  A    between atoms: _61  and  _62
REMARK   24  A    between atoms: _61  and  _64
REMARK   25  A    between atoms: _64  and  _65
REMARK   26  A    between atoms: _68  and  _70
REMARK   27  A    between atoms: _70  and  _71
REMARK   28  A    between atoms: _70  and  _73
REMARK   29  A    between atoms: _73  and  _74
REMARK   30  A    between atoms: _84  and  _86
REMARK   31  A    between atoms: _86  and  _87
REMARK   32  A    between atoms: _86  and  _89
REMARK   33  A    between atoms: _89  and  _90
REMARK   34  A    between atoms: _93  and  _95
REMARK   35  A    between atoms: _95  and  _96
REMARK   36  A    between atoms: _95  and  _98
REMARK   37  A    between atoms: _98  and  _99
REMARK   38  A    between atoms: _102  and  _104
REMARK   39  A    between atoms: _104  and  _105
REMARK   40  A    between atoms: _104  and  _107
REMARK   41  A    between atoms: _107  and  _108
REMARK   42  A    between atoms: _112  and  _113
REMARK   43  A    between atoms: _118  and  _120
REMARK   44  A    between atoms: _120  and  _121
REMARK   45  A    between atoms: _120  and  _123
REMARK   46  A    between atoms: _123  and  _124
REMARK   47  A    between atoms: _127  and  _129
REMARK   48  A    between atoms: _129  and  _130
REMARK   49  A    between atoms: _133  and  _135
REMARK   50  A    between atoms: _135  and  _136
REMARK   51  A    between atoms: _135  and  _138
REMARK   52  A    between atoms: _138  and  _139
REMARK   53  A    between atoms: _142  and  _144
REMARK   54  A    between atoms: _144  and  _145
REMARK   55  A    between atoms: _144  and  _147
REMARK   56  A    between atoms: _147  and  _148
REMARK   57  A    between atoms: _151  and  _153
REMARK   58  A    between atoms: _153  and  _154
REMARK   59  A    between atoms: _153  and  _156
REMARK   60  A    between atoms: _156  and  _157
REMARK   61  A    between atoms: _162  and  _164
REMARK   62  A    between atoms: _164  and  _165
REMARK   63  A    between atoms: _168  and  _170
REMARK   64  A    between atoms: _170  and  _171
REMARK   65  A    between atoms: _170  and  _173
REMARK   66  A    between atoms: _173  and  _174
REMARK   67  A    between atoms: _184  and  _186
REMARK   68  A    between atoms: _186  and  _187
REMARK   69  A    between atoms: _186  and  _189
REMARK   70  A    between atoms: _189  and  _190
REMARK   71  A    between atoms: _192  and  _194
REMARK   72  A    between atoms: _194  and  _195
REMARK   73  A    between atoms: _194  and  _197
REMARK   74  A    between atoms: _197  and  _198
REMARK   75  A    between atoms: _201  and  _203
REMARK   76  A    between atoms: _203  and  _204
REMARK   77  A    between atoms: _203  and  _206
REMARK   78  A    between atoms: _208  and  _210
REMARK   79  A    between atoms: _210  and  _211
REMARK   80  A    between atoms: _210  and  _213
REMARK   81  A    between atoms: _213  and  _214
REMARK   82  A    between atoms: _221  and  _222
REMARK   83  A    between atoms: _227  and  _229
REMARK   84  A    between atoms: _229  and  _230
REMARK   85  A    between atoms: _229  and  _232
REMARK   86  A    between atoms: _232  and  _233
REMARK   87  A    between atoms: _243  and  _245
REMARK   88  A    between atoms: _245  and  _246
REMARK   89  A    between atoms: _245  and  _248
REMARK   90  A    between atoms: _251  and  _253
REMARK   91  A    between atoms: _253  and  _254
REMARK   92  A    between atoms: _253  and  _256
REMARK   93  A    between atoms: _256  and  _257
REMARK   94  A    between atoms: _267  and  _269
REMARK   95  A    between atoms: _269  and  _270
REMARK   96  A    between atoms: _272  and  _274
REMARK   97  A    between atoms: _274  and  _275
REMARK   98  A    between atoms: _274  and  _277
REMARK   99  A    between atoms: _277  and  _278
REMARK  100  A    between atoms: _278  and  _279
REMARK  101  A    between atoms: _282  and  _284
REMARK  102  A    between atoms: _284  and  _285
REMARK  103  A    between atoms: _287  and  _289
REMARK  104  A    between atoms: _289  and  _290
REMARK  105  A    between atoms: _293  and  _295
REMARK  106  A    between atoms: _295  and  _296
REMARK  107  A    between atoms: _295  and  _298
REMARK  108  A    between atoms: _298  and  _299
REMARK  109  A    between atoms: _302  and  _304
REMARK  110  A    between atoms: _304  and  _305
REMARK  111  A    between atoms: _304  and  _307
REMARK  112  A    between atoms: _307  and  _308
REMARK  113  A    between atoms: _314  and  _316
REMARK  114  A    between atoms: _316  and  _317
REMARK  115  A    between atoms: _316  and  _319
REMARK  116  A    between atoms: _319  and  _320
REMARK  117  A    between atoms: _325  and  _326
REMARK  118  A    between atoms: _328  and  _330
REMARK  119  A    between atoms: _330  and  _331
REMARK  120  A    between atoms: _330  and  _333
REMARK  121  A    between atoms: _333  and  _334
REMARK  122  A    between atoms: _339  and  _341
REMARK  123  A    between atoms: _341  and  _342
REMARK  124  A    between atoms: _341  and  _344
REMARK  125  A    between atoms: _344  and  _345
REMARK  126  A    between atoms: _351  and  _353
REMARK  127  A    between atoms: _353  and  _354
REMARK  128  A    between atoms: _353  and  _356
REMARK  129  A    between atoms: _356  and  _357
REMARK  130  A    between atoms: _362  and  _364
REMARK  131  A    between atoms: _364  and  _365
REMARK  132  A    between atoms: _364  and  _367
REMARK  133  A    between atoms: _367  and  _368
REMARK  134  A    between atoms: _368  and  _369
REMARK  135  A    between atoms: _374  and  _376
REMARK  136  A    between atoms: _376  and  _377
REMARK  137  A    between atoms: _376  and  _379
REMARK  138  A    between atoms: _379  and  _380
REMARK  139  A    between atoms: _380  and  _381
REMARK  140  A    between atoms: _384  and  _386
REMARK  141  A    between atoms: _386  and  _387
REMARK  142  A    between atoms: _386  and  _389
REMARK  143  A    between atoms: _389  and  _390
REMARK  144  A    between atoms: _390  and  _391
REMARK  145  A    between atoms: _393  and  _395
REMARK  146  A    between atoms: _395  and  _396
REMARK  147  A    between atoms: _395  and  _398
REMARK  148  A    between atoms: _398  and  _399
REMARK  149  A    between atoms: _399  and  _400
REMARK  150  A    between atoms: _405  and  _407
REMARK  151  A    between atoms: _407  and  _408
REMARK  152  A    between atoms: _407  and  _410
REMARK  153  A    between atoms: _410  and  _411
REMARK  154  A    between atoms: _414  and  _416
REMARK  155  A    between atoms: _416  and  _417
REMARK  156  A    between atoms: _416  and  _419
REMARK  157  A    between atoms: _422  and  _424
REMARK  158  A    between atoms: _424  and  _425
REMARK  159  A    between atoms: _424  and  _427
REMARK  160  A    between atoms: _427  and  _428
REMARK  161  A    between atoms: _428  and  _429
REMARK  162  A    between atoms: _429  and  _430
REMARK  163  A    between atoms: _439  and  _441
REMARK  164  A    between atoms: _441  and  _442
REMARK  165  A    between atoms: _441  and  _444
REMARK  166  A    between atoms: _444  and  _445
REMARK  167  A    between atoms: _449  and  _450
REMARK                            x       y       z     vdW  Elec       q    Type
REMARK                         _______ _______ _______ _____ _____    ______ ____
ROOT
ATOM      1  CB  PHE A   1      37.701  -0.051  84.030  0.00  0.00    +0.051 C 
ENDROOT
BRANCH   1   2
ATOM      2  CG  PHE A   1      37.301  -0.320  85.450  0.00  0.00    -0.020 A 
ATOM      3  CD2 PHE A   1      37.634   0.561  86.476  0.00  0.00    -0.004 A 
ATOM      4  CE2 PHE A   1      37.268   0.310  87.751  0.00  0.00    -0.000 A 
ATOM      5  CZ  PHE A   1      36.495  -0.778  88.061  0.00  0.00    -0.000 A 
ATOM      6  CE1 PHE A   1      36.149  -1.683  87.090  0.00  0.00    -0.000 A 
ATOM      7  CD1 PHE A   1      36.543  -1.427  85.748  0.00  0.00    -0.004 A 
ENDBRANCH   1   2
BRANCH   1   8
ATOM      8  CA  PHE A   1      36.604   0.685  83.217  0.00  0.00    +0.137 C 
BRANCH   8   9
ATOM      9  N   PHE A   1      35.393  -0.073  83.119  0.00  0.00    -0.239 NA
ATOM     10  H   PHE A   1      35.387  -0.951  82.562  0.00  0.00    +0.142 HD
ENDBRANCH   8   9
BRANCH   8  11
ATOM     11  C   PHE A   1      37.207   0.940  81.843  0.00  0.00    +0.224 C 
ATOM     12  O   PHE A   1      37.177   0.028  80.977  0.00  0.00    -0.287 OA
ENDBRANCH   8  11
ENDBRANCH   1   8
TORSDOF 4
REMARK  Name = ../refined-set-2016/3jup/3jup_pocket.pdb
REMARK  167 active torsions:
REMARK  status: ('A' for Active; 'I' for Inactive)
REMARK    1  A    between atoms: _1  and  _3
REMARK    2  A    between atoms: _3  and  _4
REMARK    3  A    between atoms: _3  and  _6
REMARK    4  A    between atoms: _6  and  _7
REMARK    5  A    between atoms: _12  and  _13
REMARK    6  A    between atoms: _15  and  _17
REMARK    7  A    between atoms: _17  and  _18
REMARK    8  A    between atoms: _17  and  _20
REMARK    9  A    between atoms: _20  and  _21
REMARK   10  A    between atoms: _21  and  _22
REMARK   11  A    between atoms: _22  and  _23
REMARK   12  A    between atoms: _32  and  _34
REMARK   13  A    between atoms: _34  and  _35
REMARK   14  A    between atoms: _34  and  _37
REMARK   15  A    between atoms: _37  and  _38
REMARK   16  A    between atoms: _38  and  _39
REMARK   17  A    between atoms: _39  and  _40
REMARK   18  A    between atoms: _49  and  _51
REMARK   19  A    between atoms: _51  and  _52
REMARK   20  A    between atoms: _54  and  _56
REMARK   21  A    between atoms: _56  and  _57
REMARK   22  A    between atoms: _59  and  _61
REMARK   23  A    between atoms: _61  and  _62
REMARK   24  A    between atoms: _61  and  _64
REMARK   25  A    between atoms: _64  and  _65
REMARK   26  A    between atoms: _68  and  _70
REMARK   27  A    between atoms: _70  and  _71
REMARK   28  A    between atoms: _70  and  _73
REMARK   29  A    between atoms: _73  and  _74
REMARK   30  A    between atoms: _84  and  _86
REMARK   31  A    between atoms: _86  and  _87
REMARK   32  A    between atoms: _86  and  _89
REMARK   33  A    between atoms: _89  and  _90
REMARK   34  A    between atoms: _93  and  _95
REMARK   35  A    between atoms: _95  and  _96
REMARK   36  A    between atoms: _95  and  _98
REMARK   37  A    between atoms: _98  and  _99
REMARK   38  A    between atoms: _102  and  _104
REMARK   39  A    between atoms: _104  and  _105
REMARK   40  A    between atoms: _104  and  _107
REMARK   41  A    between atoms: _107  and  _108
REMARK   42  A    between atoms: _112  and  _113
REMARK   43  A    between atoms: _118  and  _120
REMARK   44  A    between atoms: _120  and  _121
REMARK   45  A    between atoms: _120  and  _123
REMARK   46  A    between atoms: _123  and  _124
REMARK   47  A    between atoms: _127  and  _129
REMARK   48  A    between atoms: _129  and  _130
REMARK   49  A    between atoms: _133  and  _135
REMARK   50  A    between atoms: _135  and  _136
REMARK   51  A    between atoms: _135  and  _138
REMARK   52  A    between atoms: _138  and  _139
REMARK   53  A    between atoms: _142  and  _144
REMARK   54  A    between atoms: _144  and  _145
REMARK   55  A    between atoms: _144  and  _147
REMARK   56  A    between atoms: _147  and  _148
REMARK   57  A    between atoms: _151  and  _153
REMARK   58  A    between atoms: _153  and  _154
REMARK   59  A    between atoms: _153  and  _156
REMARK   60  A    between atoms: _156  and  _157
REMARK   61  A    between atoms: _162  and  _164
REMARK   62  A    between atoms: _164  and  _165
REMARK   63  A    between atoms: _168  and  _170
REMARK   64  A    between atoms: _170  and  _171
REMARK   65  A    between atoms: _170  and  _173
REMARK   66  A    between atoms: _173  and  _174
REMARK   67  A    between atoms: _184  and  _186
REMARK   68  A    between atoms: _186  and  _187
REMARK   69  A    between atoms: _186  and  _189
REMARK   70  A    between atoms: _189  and  _190
REMARK   71  A    between atoms: _192  and  _194
REMARK   72  A    between atoms: _194  and  _195
REMARK   73  A    between atoms: _194  and  _197
REMARK   74  A    between atoms: _197  and  _198
REMARK   75  A    between atoms: _201  and  _203
REMARK   76  A    between atoms: _203  and  _204
REMARK   77  A    between atoms: _203  and  _206
REMARK   78  A    between atoms: _208  and  _210
REMARK   79  A    between atoms: _210  and  _211
REMARK   80  A    between atoms: _210  and  _213
REMARK   81  A    between atoms: _213  and  _214
REMARK   82  A    between atoms: _221  and  _222
REMARK   83  A    between atoms: _227  and  _229
REMARK   84  A    between atoms: _229  and  _230
REMARK   85  A    between atoms: _229  and  _232
REMARK   86  A    between atoms: _232  and  _233
REMARK   87  A    between atoms: _243  and  _245
REMARK   88  A    between atoms: _245  and  _246
REMARK   89  A    between atoms: _245  and  _248
REMARK   90  A    between atoms: _251  and  _253
REMARK   91  A    between atoms: _253  and  _254
REMARK   92  A    between atoms: _253  and  _256
REMARK   93  A    between atoms: _256  and  _257
REMARK   94  A    between atoms: _267  and  _269
REMARK   95  A    between atoms: _269  and  _270
REMARK   96  A    between atoms: _272  and  _274
REMARK   97  A    between atoms: _274  and  _275
REMARK   98  A    between atoms: _274  and  _277
REMARK   99  A    between atoms: _277  and  _278
REMARK  100  A    between atoms: _278  and  _279
REMARK  101  A    between atoms: _282  and  _284
REMARK  102  A    between atoms: _284  and  _285
REMARK  103  A    between atoms: _287  and  _289
REMARK  104  A    between atoms: _289  and  _290
REMARK  105  A    between atoms: _293  and  _295
REMARK  106  A    between atoms: _295  and  _296
REMARK  107  A    between atoms: _295  and  _298
REMARK  108  A    between atoms: _298  and  _299
REMARK  109  A    between atoms: _302  and  _304
REMARK  110  A    between atoms: _304  and  _305
REMARK  111  A    between atoms: _304  and  _307
REMARK  112  A    between atoms: _307  and  _308
REMARK  113  A    between atoms: _314  and  _316
REMARK  114  A    between atoms: _316  and  _317
REMARK  115  A    between atoms: _316  and  _319
REMARK  116  A    between atoms: _319  and  _320
REMARK  117  A    between atoms: _325  and  _326
REMARK  118  A    between atoms: _328  and  _330
REMARK  119  A    between atoms: _330  and  _331
REMARK  120  A    between atoms: _330  and  _333
REMARK  121  A    between atoms: _333  and  _334
REMARK  122  A    between atoms: _339  and  _341
REMARK  123  A    between atoms: _341  and  _342
REMARK  124  A    between atoms: _341  and  _344
REMARK  125  A    between atoms: _344  and  _345
REMARK  126  A    between atoms: _351  and  _353
REMARK  127  A    between atoms: _353  and  _354
REMARK  128  A    between atoms: _353  and  _356
REMARK  129  A    between atoms: _356  and  _357
REMARK  130  A    between atoms: _362  and  _364
REMARK  131  A    between atoms: _364  and  _365
REMARK  132  A    between atoms: _364  and  _367
REMARK  133  A    between atoms: _367  and  _368
REMARK  134  A    between atoms: _368  and  _369
REMARK  135  A    between atoms: _374  and  _376
REMARK  136  A    between atoms: _376  and  _377
REMARK  137  A    between atoms: _376  and  _379
REMARK  138  A    between atoms: _379  and  _380
REMARK  139  A    between atoms: _380  and  _381
REMARK  140  A    between atoms: _384  and  _386
REMARK  141  A    between atoms: _386  and  _387
REMARK  142  A    between atoms: _386  and  _389
REMARK  143  A    between atoms: _389  and  _390
REMARK  144  A    between atoms: _390  and  _391
REMARK  145  A    between atoms: _393  and  _395
REMARK  146  A    between atoms: _395  and  _396
REMARK  147  A    between atoms: _395  and  _398
REMARK  148  A    between atoms: _398  and  _399
REMARK  149  A    between atoms: _399  and  _400
REMARK  150  A    between atoms: _405  and  _407
REMARK  151  A    between atoms: _407  and  _408
REMARK  152  A    between atoms: _407  and  _410
REMARK  153  A    between atoms: _410  and  _411
REMARK  154  A    between atoms: _414  and  _416
REMARK  155  A    between atoms: _416  and  _417
REMARK  156  A    between atoms: _416  and  _419
REMARK  157  A    between atoms: _422  and  _424
REMARK  158  A    between atoms: _424  and  _425
REMARK  159  A    between atoms: _424  and  _427
REMARK  160  A    between atoms: _427  and  _428
REMARK  161  A    between atoms: _428  and  _429
REMARK  162  A    between atoms: _429  and  _430
REMARK  163  A    between atoms: _439  and  _441
REMARK  164  A    between atoms: _441  and  _442
REMARK  165  A    between atoms: _441  and  _444
REMARK  166  A    between atoms: _444  and  _445
REMARK  167  A    between atoms: _449  and  _450
REMARK                            x       y       z     vdW  Elec       q    Type
REMARK                         _______ _______ _______ _____ _____    ______ ____
ROOT
ATOM      1  CB  HIS A   1      43.198   1.075  81.674  0.00  0.00    +0.072 C 
ENDROOT
BRANCH   1   2
ATOM      2  CG  HIS A   1      42.625   0.499  82.910  0.00  0.00    +0.082 A 
ATOM      3  ND1 HIS A   1      43.070   0.849  84.166  0.00  0.00    -0.227 NA
ATOM      4  CE1 HIS A   1      42.423   0.124  85.065  0.00  0.00    +0.199 A 
ATOM      5  NE2 HIS A   1      41.577  -0.678  84.438  0.00  0.00    -0.221 NA
ATOM      6  CD2 HIS A   1      41.678  -0.457  83.085  0.00  0.00    +0.115 A 
ENDBRANCH   1   2
BRANCH   1   7
ATOM      7  CA  HIS A   1      42.508   2.324  81.202  0.00  0.00    +0.139 C 
BRANCH   7   8
ATOM      8  N   HIS A   1      41.188   2.033  80.736  0.00  0.00    -0.239 NA
ATOM      9  H   HIS A   1      41.052   1.307  80.003  0.00  0.00    +0.142 HD
ENDBRANCH   7   8
BRANCH   7  10
ATOM     10  C   HIS A   1      43.340   2.888  80.045  0.00  0.00    +0.224 C 
ATOM     11  O   HIS A   1      43.267   2.427  78.915  0.00  0.00    -0.287 OA
ENDBRANCH   7  10
ENDBRANCH   1   7
TORSDOF 4
REMARK  Name = ../refined-set-2016/3jup/3jup_pocket.pdb
REMARK  167 active torsions:
REMARK  status: ('A' for Active; 'I' for Inactive)
REMARK    1  A    between atoms: _1  and  _3
REMARK    2  A    between atoms: _3  and  _4
REMARK    3  A    between atoms: _3  and  _6
REMARK    4  A    between atoms: _6  and  _7
REMARK    5  A    between atoms: _12  and  _13
REMARK    6  A    between atoms: _15  and  _17
REMARK    7  A    between atoms: _17  and  _18
REMARK    8  A    between atoms: _17  and  _20
REMARK    9  A    between atoms: _20  and  _21
REMARK   10  A    between atoms: _21  and  _22
REMARK   11  A    between atoms: _22  and  _23
REMARK   12  A    between atoms: _32  and  _34
REMARK   13  A    between atoms: _34  and  _35
REMARK   14  A    between atoms: _34  and  _37
REMARK   15  A    between atoms: _37  and  _38
REMARK   16  A    between atoms: _38  and  _39
REMARK   17  A    between atoms: _39  and  _40
REMARK   18  A    between atoms: _49  and  _51
REMARK   19  A    between atoms: _51  and  _52
REMARK   20  A    between atoms: _54  and  _56
REMARK   21  A    between atoms: _56  and  _57
REMARK   22  A    between atoms: _59  and  _61
REMARK   23  A    between atoms: _61  and  _62
REMARK   24  A    between atoms: _61  and  _64
REMARK   25  A    between atoms: _64  and  _65
REMARK   26  A    between atoms: _68  and  _70
REMARK   27  A    between atoms: _70  and  _71
REMARK   28  A    between atoms: _70  and  _73
REMARK   29  A    between atoms: _73  and  _74
REMARK   30  A    between atoms: _84  and  _86
REMARK   31  A    between atoms: _86  and  _87
REMARK   32  A    between atoms: _86  and  _89
REMARK   33  A    between atoms: _89  and  _90
REMARK   34  A    between atoms: _93  and  _95
REMARK   35  A    between atoms: _95  and  _96
REMARK   36  A    between atoms: _95  and  _98
REMARK   37  A    between atoms: _98  and  _99
REMARK   38  A    between atoms: _102  and  _104
REMARK   39  A    between atoms: _104  and  _105
REMARK   40  A    between atoms: _104  and  _107
REMARK   41  A    between atoms: _107  and  _108
REMARK   42  A    between atoms: _112  and  _113
REMARK   43  A    between atoms: _118  and  _120
REMARK   44  A    between atoms: _120  and  _121
REMARK   45  A    between atoms: _120  and  _123
REMARK   46  A    between atoms: _123  and  _124
REMARK   47  A    between atoms: _127  and  _129
REMARK   48  A    between atoms: _129  and  _130
REMARK   49  A    between atoms: _133  and  _135
REMARK   50  A    between atoms: _135  and  _136
REMARK   51  A    between atoms: _135  and  _138
REMARK   52  A    between atoms: _138  and  _139
REMARK   53  A    between atoms: _142  and  _144
REMARK   54  A    between atoms: _144  and  _145
REMARK   55  A    between atoms: _144  and  _147
REMARK   56  A    between atoms: _147  and  _148
REMARK   57  A    between atoms: _151  and  _153
REMARK   58  A    between atoms: _153  and  _154
REMARK   59  A    between atoms: _153  and  _156
REMARK   60  A    between atoms: _156  and  _157
REMARK   61  A    between atoms: _162  and  _164
REMARK   62  A    between atoms: _164  and  _165
REMARK   63  A    between atoms: _168  and  _170
REMARK   64  A    between atoms: _170  and  _171
REMARK   65  A    between atoms: _170  and  _173
REMARK   66  A    between atoms: _173  and  _174
REMARK   67  A    between atoms: _184  and  _186
REMARK   68  A    between atoms: _186  and  _187
REMARK   69  A    between atoms: _186  and  _189
REMARK   70  A    between atoms: _189  and  _190
REMARK   71  A    between atoms: _192  and  _194
REMARK   72  A    between atoms: _194  and  _195
REMARK   73  A    between atoms: _194  and  _197
REMARK   74  A    between atoms: _197  and  _198
REMARK   75  A    between atoms: _201  and  _203
REMARK   76  A    between atoms: _203  and  _204
REMARK   77  A    between atoms: _203  and  _206
REMARK   78  A    between atoms: _208  and  _210
REMARK   79  A    between atoms: _210  and  _211
REMARK   80  A    between atoms: _210  and  _213
REMARK   81  A    between atoms: _213  and  _214
REMARK   82  A    between atoms: _221  and  _222
REMARK   83  A    between atoms: _227  and  _229
REMARK   84  A    between atoms: _229  and  _230
REMARK   85  A    between atoms: _229  and  _232
REMARK   86  A    between atoms: _232  and  _233
REMARK   87  A    between atoms: _243  and  _245
REMARK   88  A    between atoms: _245  and  _246
REMARK   89  A    between atoms: _245  and  _248
REMARK   90  A    between atoms: _251  and  _253
REMARK   91  A    between atoms: _253  and  _254
REMARK   92  A    between atoms: _253  and  _256
REMARK   93  A    between atoms: _256  and  _257
REMARK   94  A    between atoms: _267  and  _269
REMARK   95  A    between atoms: _269  and  _270
REMARK   96  A    between atoms: _272  and  _274
REMARK   97  A    between atoms: _274  and  _275
REMARK   98  A    between atoms: _274  and  _277
REMARK   99  A    between atoms: _277  and  _278
REMARK  100  A    between atoms: _278  and  _279
REMARK  101  A    between atoms: _282  and  _284
REMARK  102  A    between atoms: _284  and  _285
REMARK  103  A    between atoms: _287  and  _289
REMARK  104  A    between atoms: _289  and  _290
REMARK  105  A    between atoms: _293  and  _295
REMARK  106  A    between atoms: _295  and  _296
REMARK  107  A    between atoms: _295  and  _298
REMARK  108  A    between atoms: _298  and  _299
REMARK  109  A    between atoms: _302  and  _304
REMARK  110  A    between atoms: _304  and  _305
REMARK  111  A    between atoms: _304  and  _307
REMARK  112  A    between atoms: _307  and  _308
REMARK  113  A    between atoms: _314  and  _316
REMARK  114  A    between atoms: _316  and  _317
REMARK  115  A    between atoms: _316  and  _319
REMARK  116  A    between atoms: _319  and  _320
REMARK  117  A    between atoms: _325  and  _326
REMARK  118  A    between atoms: _328  and  _330
REMARK  119  A    between atoms: _330  and  _331
REMARK  120  A    between atoms: _330  and  _333
REMARK  121  A    between atoms: _333  and  _334
REMARK  122  A    between atoms: _339  and  _341
REMARK  123  A    between atoms: _341  and  _342
REMARK  124  A    between atoms: _341  and  _344
REMARK  125  A    between atoms: _344  and  _345
REMARK  126  A    between atoms: _351  and  _353
REMARK  127  A    between atoms: _353  and  _354
REMARK  128  A    between atoms: _353  and  _356
REMARK  129  A    between atoms: _356  and  _357
REMARK  130  A    between atoms: _362  and  _364
REMARK  131  A    between atoms: _364  and  _365
REMARK  132  A    between atoms: _364  and  _367
REMARK  133  A    between atoms: _367  and  _368
REMARK  134  A    between atoms: _368  and  _369
REMARK  135  A    between atoms: _374  and  _376
REMARK  136  A    between atoms: _376  and  _377
REMARK  137  A    between atoms: _376  and  _379
REMARK  138  A    between atoms: _379  and  _380
REMARK  139  A    between atoms: _380  and  _381
REMARK  140  A    between atoms: _384  and  _386
REMARK  141  A    between atoms: _386  and  _387
REMARK  142  A    between atoms: _386  and  _389
REMARK  143  A    between atoms: _389  and  _390
REMARK  144  A    between atoms: _390  and  _391
REMARK  145  A    between atoms: _393  and  _395
REMARK  146  A    between atoms: _395  and  _396
REMARK  147  A    between atoms: _395  and  _398
REMARK  148  A    between atoms: _398  and  _399
REMARK  149  A    between atoms: _399  and  _400
REMARK  150  A    between atoms: _405  and  _407
REMARK  151  A    between atoms: _407  and  _408
REMARK  152  A    between atoms: _407  and  _410
REMARK  153  A    between atoms: _410  and  _411
REMARK  154  A    between atoms: _414  and  _416
REMARK  155  A    between atoms: _416  and  _417
REMARK  156  A    between atoms: _416  and  _419
REMARK  157  A    between atoms: _422  and  _424
REMARK  158  A    between atoms: _424  and  _425
REMARK  159  A    between atoms: _424  and  _427
REMARK  160  A    between atoms: _427  and  _428
REMARK  161  A    between atoms: _428  and  _429
REMARK  162  A    between atoms: _429  and  _430
REMARK  163  A    between atoms: _439  and  _441
REMARK  164  A    between atoms: _441  and  _442
REMARK  165  A    between atoms: _441  and  _444
REMARK  166  A    between atoms: _444  and  _445
REMARK  167  A    between atoms: _449  and  _450
REMARK                            x       y       z     vdW  Elec       q    Type
REMARK                         _______ _______ _______ _____ _____    ______ ____
ROOT
ATOM      1  CB  GLN A   1      48.602   3.085  84.538  0.00  0.00    +0.035 C 
ENDROOT
BRANCH   1   2
ATOM      2  CA  GLN A   1      48.517   4.371  83.731  0.00  0.00    +0.134 C 
BRANCH   2   3
ATOM      3  N   GLN A   1      49.789   5.143  83.786  0.00  0.00    -0.239 NA
ATOM      4  H   GLN A   1      50.244   5.288  84.710  0.00  0.00    +0.142 HD
ENDBRANCH   2   3
BRANCH   2   5
ATOM      5  C   GLN A   1      47.442   5.241  84.346  0.00  0.00    +0.224 C 
ATOM      6  O   GLN A   1      47.684   5.905  85.363  0.00  0.00    -0.287 OA
ENDBRANCH   2   5
ENDBRANCH   1   2
BRANCH   1   7
ATOM      7  CG  GLN A   1      47.307   2.313  84.649  0.00  0.00    +0.087 C 
BRANCH   7   8
ATOM      8  CD  GLN A   1      46.487   2.631  85.918  0.00  0.00    +0.219 C 
ATOM      9  NE2 GLN A   1      47.156   3.046  86.976  0.00  0.00    -0.329 N 
ATOM     10 HE21 GLN A   1      46.653   3.241  87.865  0.00  0.00    +0.145 HD
ATOM     11 HE22 GLN A   1      48.186   3.178  86.921  0.00  0.00    +0.145 HD
ATOM     12  OE1 GLN A   1      45.241   2.454  85.927  0.00  0.00    -0.275 OA
ENDBRANCH   7   8
ENDBRANCH   1   7
TORSDOF 5
REMARK  Name = ../refined-set-2016/3jup/3jup_pocket.pdb
REMARK  167 active torsions:
REMARK  status: ('A' for Active; 'I' for Inactive)
REMARK    1  A    between atoms: _1  and  _3
REMARK    2  A    between atoms: _3  and  _4
REMARK    3  A    between atoms: _3  and  _6
REMARK    4  A    between atoms: _6  and  _7
REMARK    5  A    between atoms: _12  and  _13
REMARK    6  A    between atoms: _15  and  _17
REMARK    7  A    between atoms: _17  and  _18
REMARK    8  A    between atoms: _17  and  _20
REMARK    9  A    between atoms: _20  and  _21
REMARK   10  A    between atoms: _21  and  _22
REMARK   11  A    between atoms: _22  and  _23
REMARK   12  A    between atoms: _32  and  _34
REMARK   13  A    between atoms: _34  and  _35
REMARK   14  A    between atoms: _34  and  _37
REMARK   15  A    between atoms: _37  and  _38
REMARK   16  A    between atoms: _38  and  _39
REMARK   17  A    between atoms: _39  and  _40
REMARK   18  A    between atoms: _49  and  _51
REMARK   19  A    between atoms: _51  and  _52
REMARK   20  A    between atoms: _54  and  _56
REMARK   21  A    between atoms: _56  and  _57
REMARK   22  A    between atoms: _59  and  _61
REMARK   23  A    between atoms: _61  and  _62
REMARK   24  A    between atoms: _61  and  _64
REMARK   25  A    between atoms: _64  and  _65
REMARK   26  A    between atoms: _68  and  _70
REMARK   27  A    between atoms: _70  and  _71
REMARK   28  A    between atoms: _70  and  _73
REMARK   29  A    between atoms: _73  and  _74
REMARK   30  A    between atoms: _84  and  _86
REMARK   31  A    between atoms: _86  and  _87
REMARK   32  A    between atoms: _86  and  _89
REMARK   33  A    between atoms: _89  and  _90
REMARK   34  A    between atoms: _93  and  _95
REMARK   35  A    between atoms: _95  and  _96
REMARK   36  A    between atoms: _95  and  _98
REMARK   37  A    between atoms: _98  and  _99
REMARK   38  A    between atoms: _102  and  _104
REMARK   39  A    between atoms: _104  and  _105
REMARK   40  A    between atoms: _104  and  _107
REMARK   41  A    between atoms: _107  and  _108
REMARK   42  A    between atoms: _112  and  _113
REMARK   43  A    between atoms: _118  and  _120
REMARK   44  A    between atoms: _120  and  _121
REMARK   45  A    between atoms: _120  and  _123
REMARK   46  A    between atoms: _123  and  _124
REMARK   47  A    between atoms: _127  and  _129
REMARK   48  A    between atoms: _129  and  _130
REMARK   49  A    between atoms: _133  and  _135
REMARK   50  A    between atoms: _135  and  _136
REMARK   51  A    between atoms: _135  and  _138
REMARK   52  A    between atoms: _138  and  _139
REMARK   53  A    between atoms: _142  and  _144
REMARK   54  A    between atoms: _144  and  _145
REMARK   55  A    between atoms: _144  and  _147
REMARK   56  A    between atoms: _147  and  _148
REMARK   57  A    between atoms: _151  and  _153
REMARK   58  A    between atoms: _153  and  _154
REMARK   59  A    between atoms: _153  and  _156
REMARK   60  A    between atoms: _156  and  _157
REMARK   61  A    between atoms: _162  and  _164
REMARK   62  A    between atoms: _164  and  _165
REMARK   63  A    between atoms: _168  and  _170
REMARK   64  A    between atoms: _170  and  _171
REMARK   65  A    between atoms: _170  and  _173
REMARK   66  A    between atoms: _173  and  _174
REMARK   67  A    between atoms: _184  and  _186
REMARK   68  A    between atoms: _186  and  _187
REMARK   69  A    between atoms: _186  and  _189
REMARK   70  A    between atoms: _189  and  _190
REMARK   71  A    between atoms: _192  and  _194
REMARK   72  A    between atoms: _194  and  _195
REMARK   73  A    between atoms: _194  and  _197
REMARK   74  A    between atoms: _197  and  _198
REMARK   75  A    between atoms: _201  and  _203
REMARK   76  A    between atoms: _203  and  _204
REMARK   77  A    between atoms: _203  and  _206
REMARK   78  A    between atoms: _208  and  _210
REMARK   79  A    between atoms: _210  and  _211
REMARK   80  A    between atoms: _210  and  _213
REMARK   81  A    between atoms: _213  and  _214
REMARK   82  A    between atoms: _221  and  _222
REMARK   83  A    between atoms: _227  and  _229
REMARK   84  A    between atoms: _229  and  _230
REMARK   85  A    between atoms: _229  and  _232
REMARK   86  A    between atoms: _232  and  _233
REMARK   87  A    between atoms: _243  and  _245
REMARK   88  A    between atoms: _245  and  _246
REMARK   89  A    between atoms: _245  and  _248
REMARK   90  A    between atoms: _251  and  _253
REMARK   91  A    between atoms: _253  and  _254
REMARK   92  A    between atoms: _253  and  _256
REMARK   93  A    between atoms: _256  and  _257
REMARK   94  A    between atoms: _267  and  _269
REMARK   95  A    between atoms: _269  and  _270
REMARK   96  A    between atoms: _272  and  _274
REMARK   97  A    between atoms: _274  and  _275
REMARK   98  A    between atoms: _274  and  _277
REMARK   99  A    between atoms: _277  and  _278
REMARK  100  A    between atoms: _278  and  _279
REMARK  101  A    between atoms: _282  and  _284
REMARK  102  A    between atoms: _284  and  _285
REMARK  103  A    between atoms: _287  and  _289
REMARK  104  A    between atoms: _289  and  _290
REMARK  105  A    between atoms: _293  and  _295
REMARK  106  A    between atoms: _295  and  _296
REMARK  107  A    between atoms: _295  and  _298
REMARK  108  A    between atoms: _298  and  _299
REMARK  109  A    between atoms: _302  and  _304
REMARK  110  A    between atoms: _304  and  _305
REMARK  111  A    between atoms: _304  and  _307
REMARK  112  A    between atoms: _307  and  _308
REMARK  113  A    between atoms: _314  and  _316
REMARK  114  A    between atoms: _316  and  _317
REMARK  115  A    between atoms: _316  and  _319
REMARK  116  A    between atoms: _319  and  _320
REMARK  117  A    between atoms: _325  and  _326
REMARK  118  A    between atoms: _328  and  _330
REMARK  119  A    between atoms: _330  and  _331
REMARK  120  A    between atoms: _330  and  _333
REMARK  121  A    between atoms: _333  and  _334
REMARK  122  A    between atoms: _339  and  _341
REMARK  123  A    between atoms: _341  and  _342
REMARK  124  A    between atoms: _341  and  _344
REMARK  125  A    between atoms: _344  and  _345
REMARK  126  A    between atoms: _351  and  _353
REMARK  127  A    between atoms: _353  and  _354
REMARK  128  A    between atoms: _353  and  _356
REMARK  129  A    between atoms: _356  and  _357
REMARK  130  A    between atoms: _362  and  _364
REMARK  131  A    between atoms: _364  and  _365
REMARK  132  A    between atoms: _364  and  _367
REMARK  133  A    between atoms: _367  and  _368
REMARK  134  A    between atoms: _368  and  _369
REMARK  135  A    between atoms: _374  and  _376
REMARK  136  A    between atoms: _376  and  _377
REMARK  137  A    between atoms: _376  and  _379
REMARK  138  A    between atoms: _379  and  _380
REMARK  139  A    between atoms: _380  and  _381
REMARK  140  A    between atoms: _384  and  _386
REMARK  141  A    between atoms: _386  and  _387
REMARK  142  A    between atoms: _386  and  _389
REMARK  143  A    between atoms: _389  and  _390
REMARK  144  A    between atoms: _390  and  _391
REMARK  145  A    between atoms: _393  and  _395
REMARK  146  A    between atoms: _395  and  _396
REMARK  147  A    between atoms: _395  and  _398
REMARK  148  A    between atoms: _398  and  _399
REMARK  149  A    between atoms: _399  and  _400
REMARK  150  A    between atoms: _405  and  _407
REMARK  151  A    between atoms: _407  and  _408
REMARK  152  A    between atoms: _407  and  _410
REMARK  153  A    between atoms: _410  and  _411
REMARK  154  A    between atoms: _414  and  _416
REMARK  155  A    between atoms: _416  and  _417
REMARK  156  A    between atoms: _416  and  _419
REMARK  157  A    between atoms: _422  and  _424
REMARK  158  A    between atoms: _424  and  _425
REMARK  159  A    between atoms: _424  and  _427
REMARK  160  A    between atoms: _427  and  _428
REMARK  161  A    between atoms: _428  and  _429
REMARK  162  A    between atoms: _429  and  _430
REMARK  163  A    between atoms: _439  and  _441
REMARK  164  A    between atoms: _441  and  _442
REMARK  165  A    between atoms: _441  and  _444
REMARK  166  A    between atoms: _444  and  _445
REMARK  167  A    between atoms: _449  and  _450
REMARK                            x       y       z     vdW  Elec       q    Type
REMARK                         _______ _______ _______ _____ _____    ______ ____
ROOT
ATOM      1  CA  GLU A   1      41.846   4.495  85.212  0.00  0.00    +0.134 C 
ENDROOT
BRANCH   1   2
ATOM      2  N   GLU A   1      43.128   5.162  85.183  0.00  0.00    -0.239 NA
ATOM      3  H   GLU A   1      43.475   5.589  86.066  0.00  0.00    +0.142 HD
ENDBRANCH   1   2
BRANCH   1   4
ATOM      4  C   GLU A   1      40.685   5.476  85.160  0.00  0.00    +0.224 C 
ATOM      5  O   GLU A   1      40.648   6.484  85.901  0.00  0.00    -0.287 OA
ENDBRANCH   1   4
BRANCH   1   6
ATOM      6  CB  GLU A   1      41.726   3.752  86.564  0.00  0.00    +0.037 C 
BRANCH   6   7
ATOM      7  CG  GLU A   1      40.398   3.025  86.703  0.00  0.00    +0.116 C 
BRANCH   7   8
ATOM      8  CD  GLU A   1      40.285   2.355  88.073  0.00  0.00    +0.365 C 
ATOM      9  OE2 GLU A   1      39.343   2.673  88.823  0.00  0.00    -0.246 OA
ATOM     10  OE1 GLU A   1      41.080   1.449  88.316  0.00  0.00    -0.246 OA
ENDBRANCH   7   8
ENDBRANCH   6   7
ENDBRANCH   1   6
TORSDOF 5
REMARK  Name = ../refined-set-2016/3jup/3jup_pocket.pdb
REMARK  167 active torsions:
REMARK  status: ('A' for Active; 'I' for Inactive)
REMARK    1  A    between atoms: _1  and  _3
REMARK    2  A    between atoms: _3  and  _4
REMARK    3  A    between atoms: _3  and  _6
REMARK    4  A    between atoms: _6  and  _7
REMARK    5  A    between atoms: _12  and  _13
REMARK    6  A    between atoms: _15  and  _17
REMARK    7  A    between atoms: _17  and  _18
REMARK    8  A    between atoms: _17  and  _20
REMARK    9  A    between atoms: _20  and  _21
REMARK   10  A    between atoms: _21  and  _22
REMARK   11  A    between atoms: _22  and  _23
REMARK   12  A    between atoms: _32  and  _34
REMARK   13  A    between atoms: _34  and  _35
REMARK   14  A    between atoms: _34  and  _37
REMARK   15  A    between atoms: _37  and  _38
REMARK   16  A    between atoms: _38  and  _39
REMARK   17  A    between atoms: _39  and  _40
REMARK   18  A    between atoms: _49  and  _51
REMARK   19  A    between atoms: _51  and  _52
REMARK   20  A    between atoms: _54  and  _56
REMARK   21  A    between atoms: _56  and  _57
REMARK   22  A    between atoms: _59  and  _61
REMARK   23  A    between atoms: _61  and  _62
REMARK   24  A    between atoms: _61  and  _64
REMARK   25  A    between atoms: _64  and  _65
REMARK   26  A    between atoms: _68  and  _70
REMARK   27  A    between atoms: _70  and  _71
REMARK   28  A    between atoms: _70  and  _73
REMARK   29  A    between atoms: _73  and  _74
REMARK   30  A    between atoms: _84  and  _86
REMARK   31  A    between atoms: _86  and  _87
REMARK   32  A    between atoms: _86  and  _89
REMARK   33  A    between atoms: _89  and  _90
REMARK   34  A    between atoms: _93  and  _95
REMARK   35  A    between atoms: _95  and  _96
REMARK   36  A    between atoms: _95  and  _98
REMARK   37  A    between atoms: _98  and  _99
REMARK   38  A    between atoms: _102  and  _104
REMARK   39  A    between atoms: _104  and  _105
REMARK   40  A    between atoms: _104  and  _107
REMARK   41  A    between atoms: _107  and  _108
REMARK   42  A    between atoms: _112  and  _113
REMARK   43  A    between atoms: _118  and  _120
REMARK   44  A    between atoms: _120  and  _121
REMARK   45  A    between atoms: _120  and  _123
REMARK   46  A    between atoms: _123  and  _124
REMARK   47  A    between atoms: _127  and  _129
REMARK   48  A    between atoms: _129  and  _130
REMARK   49  A    between atoms: _133  and  _135
REMARK   50  A    between atoms: _135  and  _136
REMARK   51  A    between atoms: _135  and  _138
REMARK   52  A    between atoms: _138  and  _139
REMARK   53  A    between atoms: _142  and  _144
REMARK   54  A    between atoms: _144  and  _145
REMARK   55  A    between atoms: _144  and  _147
REMARK   56  A    between atoms: _147  and  _148
REMARK   57  A    between atoms: _151  and  _153
REMARK   58  A    between atoms: _153  and  _154
REMARK   59  A    between atoms: _153  and  _156
REMARK   60  A    between atoms: _156  and  _157
REMARK   61  A    between atoms: _162  and  _164
REMARK   62  A    between atoms: _164  and  _165
REMARK   63  A    between atoms: _168  and  _170
REMARK   64  A    between atoms: _170  and  _171
REMARK   65  A    between atoms: _170  and  _173
REMARK   66  A    between atoms: _173  and  _174
REMARK   67  A    between atoms: _184  and  _186
REMARK   68  A    between atoms: _186  and  _187
REMARK   69  A    between atoms: _186  and  _189
REMARK   70  A    between atoms: _189  and  _190
REMARK   71  A    between atoms: _192  and  _194
REMARK   72  A    between atoms: _194  and  _195
REMARK   73  A    between atoms: _194  and  _197
REMARK   74  A    between atoms: _197  and  _198
REMARK   75  A    between atoms: _201  and  _203
REMARK   76  A    between atoms: _203  and  _204
REMARK   77  A    between atoms: _203  and  _206
REMARK   78  A    between atoms: _208  and  _210
REMARK   79  A    between atoms: _210  and  _211
REMARK   80  A    between atoms: _210  and  _213
REMARK   81  A    between atoms: _213  and  _214
REMARK   82  A    between atoms: _221  and  _222
REMARK   83  A    between atoms: _227  and  _229
REMARK   84  A    between atoms: _229  and  _230
REMARK   85  A    between atoms: _229  and  _232
REMARK   86  A    between atoms: _232  and  _233
REMARK   87  A    between atoms: _243  and  _245
REMARK   88  A    between atoms: _245  and  _246
REMARK   89  A    between atoms: _245  and  _248
REMARK   90  A    between atoms: _251  and  _253
REMARK   91  A    between atoms: _253  and  _254
REMARK   92  A    between atoms: _253  and  _256
REMARK   93  A    between atoms: _256  and  _257
REMARK   94  A    between atoms: _267  and  _269
REMARK   95  A    between atoms: _269  and  _270
REMARK   96  A    between atoms: _272  and  _274
REMARK   97  A    between atoms: _274  and  _275
REMARK   98  A    between atoms: _274  and  _277
REMARK   99  A    between atoms: _277  and  _278
REMARK  100  A    between atoms: _278  and  _279
REMARK  101  A    between atoms: _282  and  _284
REMARK  102  A    between atoms: _284  and  _285
REMARK  103  A    between atoms: _287  and  _289
REMARK  104  A    between atoms: _289  and  _290
REMARK  105  A    between atoms: _293  and  _295
REMARK  106  A    between atoms: _295  and  _296
REMARK  107  A    between atoms: _295  and  _298
REMARK  108  A    between atoms: _298  and  _299
REMARK  109  A    between atoms: _302  and  _304
REMARK  110  A    between atoms: _304  and  _305
REMARK  111  A    between atoms: _304  and  _307
REMARK  112  A    between atoms: _307  and  _308
REMARK  113  A    between atoms: _314  and  _316
REMARK  114  A    between atoms: _316  and  _317
REMARK  115  A    between atoms: _316  and  _319
REMARK  116  A    between atoms: _319  and  _320
REMARK  117  A    between atoms: _325  and  _326
REMARK  118  A    between atoms: _328  and  _330
REMARK  119  A    between atoms: _330  and  _331
REMARK  120  A    between atoms: _330  and  _333
REMARK  121  A    between atoms: _333  and  _334
REMARK  122  A    between atoms: _339  and  _341
REMARK  123  A    between atoms: _341  and  _342
REMARK  124  A    between atoms: _341  and  _344
REMARK  125  A    between atoms: _344  and  _345
REMARK  126  A    between atoms: _351  and  _353
REMARK  127  A    between atoms: _353  and  _354
REMARK  128  A    between atoms: _353  and  _356
REMARK  129  A    between atoms: _356  and  _357
REMARK  130  A    between atoms: _362  and  _364
REMARK  131  A    between atoms: _364  and  _365
REMARK  132  A    between atoms: _364  and  _367
REMARK  133  A    between atoms: _367  and  _368
REMARK  134  A    between atoms: _368  and  _369
REMARK  135  A    between atoms: _374  and  _376
REMARK  136  A    between atoms: _376  and  _377
REMARK  137  A    between atoms: _376  and  _379
REMARK  138  A    between atoms: _379  and  _380
REMARK  139  A    between atoms: _380  and  _381
REMARK  140  A    between atoms: _384  and  _386
REMARK  141  A    between atoms: _386  and  _387
REMARK  142  A    between atoms: _386  and  _389
REMARK  143  A    between atoms: _389  and  _390
REMARK  144  A    between atoms: _390  and  _391
REMARK  145  A    between atoms: _393  and  _395
REMARK  146  A    between atoms: _395  and  _396
REMARK  147  A    between atoms: _395  and  _398
REMARK  148  A    between atoms: _398  and  _399
REMARK  149  A    between atoms: _399  and  _400
REMARK  150  A    between atoms: _405  and  _407
REMARK  151  A    between atoms: _407  and  _408
REMARK  152  A    between atoms: _407  and  _410
REMARK  153  A    between atoms: _410  and  _411
REMARK  154  A    between atoms: _414  and  _416
REMARK  155  A    between atoms: _416  and  _417
REMARK  156  A    between atoms: _416  and  _419
REMARK  157  A    between atoms: _422  and  _424
REMARK  158  A    between atoms: _424  and  _425
REMARK  159  A    between atoms: _424  and  _427
REMARK  160  A    between atoms: _427  and  _428
REMARK  161  A    between atoms: _428  and  _429
REMARK  162  A    between atoms: _429  and  _430
REMARK  163  A    between atoms: _439  and  _441
REMARK  164  A    between atoms: _441  and  _442
REMARK  165  A    between atoms: _441  and  _444
REMARK  166  A    between atoms: _444  and  _445
REMARK  167  A    between atoms: _449  and  _450
REMARK                            x       y       z     vdW  Elec       q    Type
REMARK                         _______ _______ _______ _____ _____    ______ ____
ROOT
ATOM      1  CA  MET A   1      35.327   4.654  85.622  0.00  0.00    +0.134 C 
ENDROOT
BRANCH   1   2
ATOM      2  N   MET A   1      36.518   5.446  85.368  0.00  0.00    -0.239 NA
ATOM      3  H   MET A   1      36.724   6.272  85.965  0.00  0.00    +0.142 HD
ENDBRANCH   1   2
BRANCH   1   4
ATOM      4  C   MET A   1      34.164   5.604  86.009  0.00  0.00    +0.224 C 
ATOM      5  O   MET A   1      34.343   6.787  85.990  0.00  0.00    -0.287 OA
ENDBRANCH   1   4
BRANCH   1   6
ATOM      6  CB  MET A   1      35.578   3.643  86.712  0.00  0.00    +0.037 C 
BRANCH   6   7
ATOM      7  CG  MET A   1      36.317   4.129  87.974  0.00  0.00    +0.059 C 
BRANCH   7   8
ATOM      8  SD  MET A   1      35.206   5.197  88.955  0.00  0.00    -0.139 S 
ATOM      9  CE  MET A   1      35.962   5.200  90.638  0.00  0.00    +0.069 C 
ENDBRANCH   7   8
ENDBRANCH   6   7
ENDBRANCH   1   6
TORSDOF 5
REMARK  Name = ../refined-set-2016/3jup/3jup_pocket.pdb
REMARK  167 active torsions:
REMARK  status: ('A' for Active; 'I' for Inactive)
REMARK    1  A    between atoms: _1  and  _3
REMARK    2  A    between atoms: _3  and  _4
REMARK    3  A    between atoms: _3  and  _6
REMARK    4  A    between atoms: _6  and  _7
REMARK    5  A    between atoms: _12  and  _13
REMARK    6  A    between atoms: _15  and  _17
REMARK    7  A    between atoms: _17  and  _18
REMARK    8  A    between atoms: _17  and  _20
REMARK    9  A    between atoms: _20  and  _21
REMARK   10  A    between atoms: _21  and  _22
REMARK   11  A    between atoms: _22  and  _23
REMARK   12  A    between atoms: _32  and  _34
REMARK   13  A    between atoms: _34  and  _35
REMARK   14  A    between atoms: _34  and  _37
REMARK   15  A    between atoms: _37  and  _38
REMARK   16  A    between atoms: _38  and  _39
REMARK   17  A    between atoms: _39  and  _40
REMARK   18  A    between atoms: _49  and  _51
REMARK   19  A    between atoms: _51  and  _52
REMARK   20  A    between atoms: _54  and  _56
REMARK   21  A    between atoms: _56  and  _57
REMARK   22  A    between atoms: _59  and  _61
REMARK   23  A    between atoms: _61  and  _62
REMARK   24  A    between atoms: _61  and  _64
REMARK   25  A    between atoms: _64  and  _65
REMARK   26  A    between atoms: _68  and  _70
REMARK   27  A    between atoms: _70  and  _71
REMARK   28  A    between atoms: _70  and  _73
REMARK   29  A    between atoms: _73  and  _74
REMARK   30  A    between atoms: _84  and  _86
REMARK   31  A    between atoms: _86  and  _87
REMARK   32  A    between atoms: _86  and  _89
REMARK   33  A    between atoms: _89  and  _90
REMARK   34  A    between atoms: _93  and  _95
REMARK   35  A    between atoms: _95  and  _96
REMARK   36  A    between atoms: _95  and  _98
REMARK   37  A    between atoms: _98  and  _99
REMARK   38  A    between atoms: _102  and  _104
REMARK   39  A    between atoms: _104  and  _105
REMARK   40  A    between atoms: _104  and  _107
REMARK   41  A    between atoms: _107  and  _108
REMARK   42  A    between atoms: _112  and  _113
REMARK   43  A    between atoms: _118  and  _120
REMARK   44  A    between atoms: _120  and  _121
REMARK   45  A    between atoms: _120  and  _123
REMARK   46  A    between atoms: _123  and  _124
REMARK   47  A    between atoms: _127  and  _129
REMARK   48  A    between atoms: _129  and  _130
REMARK   49  A    between atoms: _133  and  _135
REMARK   50  A    between atoms: _135  and  _136
REMARK   51  A    between atoms: _135  and  _138
REMARK   52  A    between atoms: _138  and  _139
REMARK   53  A    between atoms: _142  and  _144
REMARK   54  A    between atoms: _144  and  _145
REMARK   55  A    between atoms: _144  and  _147
REMARK   56  A    between atoms: _147  and  _148
REMARK   57  A    between atoms: _151  and  _153
REMARK   58  A    between atoms: _153  and  _154
REMARK   59  A    between atoms: _153  and  _156
REMARK   60  A    between atoms: _156  and  _157
REMARK   61  A    between atoms: _162  and  _164
REMARK   62  A    between atoms: _164  and  _165
REMARK   63  A    between atoms: _168  and  _170
REMARK   64  A    between atoms: _170  and  _171
REMARK   65  A    between atoms: _170  and  _173
REMARK   66  A    between atoms: _173  and  _174
REMARK   67  A    between atoms: _184  and  _186
REMARK   68  A    between atoms: _186  and  _187
REMARK   69  A    between atoms: _186  and  _189
REMARK   70  A    between atoms: _189  and  _190
REMARK   71  A    between atoms: _192  and  _194
REMARK   72  A    between atoms: _194  and  _195
REMARK   73  A    between atoms: _194  and  _197
REMARK   74  A    between atoms: _197  and  _198
REMARK   75  A    between atoms: _201  and  _203
REMARK   76  A    between atoms: _203  and  _204
REMARK   77  A    between atoms: _203  and  _206
REMARK   78  A    between atoms: _208  and  _210
REMARK   79  A    between atoms: _210  and  _211
REMARK   80  A    between atoms: _210  and  _213
REMARK   81  A    between atoms: _213  and  _214
REMARK   82  A    between atoms: _221  and  _222
REMARK   83  A    between atoms: _227  and  _229
REMARK   84  A    between atoms: _229  and  _230
REMARK   85  A    between atoms: _229  and  _232
REMARK   86  A    between atoms: _232  and  _233
REMARK   87  A    between atoms: _243  and  _245
REMARK   88  A    between atoms: _245  and  _246
REMARK   89  A    between atoms: _245  and  _248
REMARK   90  A    between atoms: _251  and  _253
REMARK   91  A    between atoms: _253  and  _254
REMARK   92  A    between atoms: _253  and  _256
REMARK   93  A    between atoms: _256  and  _257
REMARK   94  A    between atoms: _267  and  _269
REMARK   95  A    between atoms: _269  and  _270
REMARK   96  A    between atoms: _272  and  _274
REMARK   97  A    between atoms: _274  and  _275
REMARK   98  A    between atoms: _274  and  _277
REMARK   99  A    between atoms: _277  and  _278
REMARK  100  A    between atoms: _278  and  _279
REMARK  101  A    between atoms: _282  and  _284
REMARK  102  A    between atoms: _284  and  _285
REMARK  103  A    between atoms: _287  and  _289
REMARK  104  A    between atoms: _289  and  _290
REMARK  105  A    between atoms: _293  and  _295
REMARK  106  A    between atoms: _295  and  _296
REMARK  107  A    between atoms: _295  and  _298
REMARK  108  A    between atoms: _298  and  _299
REMARK  109  A    between atoms: _302  and  _304
REMARK  110  A    between atoms: _304  and  _305
REMARK  111  A    between atoms: _304  and  _307
REMARK  112  A    between atoms: _307  and  _308
REMARK  113  A    between atoms: _314  and  _316
REMARK  114  A    between atoms: _316  and  _317
REMARK  115  A    between atoms: _316  and  _319
REMARK  116  A    between atoms: _319  and  _320
REMARK  117  A    between atoms: _325  and  _326
REMARK  118  A    between atoms: _328  and  _330
REMARK  119  A    between atoms: _330  and  _331
REMARK  120  A    between atoms: _330  and  _333
REMARK  121  A    between atoms: _333  and  _334
REMARK  122  A    between atoms: _339  and  _341
REMARK  123  A    between atoms: _341  and  _342
REMARK  124  A    between atoms: _341  and  _344
REMARK  125  A    between atoms: _344  and  _345
REMARK  126  A    between atoms: _351  and  _353
REMARK  127  A    between atoms: _353  and  _354
REMARK  128  A    between atoms: _353  and  _356
REMARK  129  A    between atoms: _356  and  _357
REMARK  130  A    between atoms: _362  and  _364
REMARK  131  A    between atoms: _364  and  _365
REMARK  132  A    between atoms: _364  and  _367
REMARK  133  A    between atoms: _367  and  _368
REMARK  134  A    between atoms: _368  and  _369
REMARK  135  A    between atoms: _374  and  _376
REMARK  136  A    between atoms: _376  and  _377
REMARK  137  A    between atoms: _376  and  _379
REMARK  138  A    between atoms: _379  and  _380
REMARK  139  A    between atoms: _380  and  _381
REMARK  140  A    between atoms: _384  and  _386
REMARK  141  A    between atoms: _386  and  _387
REMARK  142  A    between atoms: _386  and  _389
REMARK  143  A    between atoms: _389  and  _390
REMARK  144  A    between atoms: _390  and  _391
REMARK  145  A    between atoms: _393  and  _395
REMARK  146  A    between atoms: _395  and  _396
REMARK  147  A    between atoms: _395  and  _398
REMARK  148  A    between atoms: _398  and  _399
REMARK  149  A    between atoms: _399  and  _400
REMARK  150  A    between atoms: _405  and  _407
REMARK  151  A    between atoms: _407  and  _408
REMARK  152  A    between atoms: _407  and  _410
REMARK  153  A    between atoms: _410  and  _411
REMARK  154  A    between atoms: _414  and  _416
REMARK  155  A    between atoms: _416  and  _417
REMARK  156  A    between atoms: _416  and  _419
REMARK  157  A    between atoms: _422  and  _424
REMARK  158  A    between atoms: _424  and  _425
REMARK  159  A    between atoms: _424  and  _427
REMARK  160  A    between atoms: _427  and  _428
REMARK  161  A    between atoms: _428  and  _429
REMARK  162  A    between atoms: _429  and  _430
REMARK  163  A    between atoms: _439  and  _441
REMARK  164  A    between atoms: _441  and  _442
REMARK  165  A    between atoms: _441  and  _444
REMARK  166  A    between atoms: _444  and  _445
REMARK  167  A    between atoms: _449  and  _450
REMARK                            x       y       z     vdW  Elec       q    Type
REMARK                         _______ _______ _______ _____ _____    ______ ____
ROOT
ATOM      1  CB  GLN A   1      32.985   3.350  93.661  0.00  0.00    +0.035 C 
ENDROOT
BRANCH   1   2
ATOM      2  CA  GLN A   1      31.594   2.761  93.701  0.00  0.00    +0.134 C 
BRANCH   2   3
ATOM      3  N   GLN A   1      30.865   3.004  92.471  0.00  0.00    -0.239 NA
ATOM      4  H   GLN A   1      31.154   3.752  91.808  0.00  0.00    +0.142 HD
ENDBRANCH   2   3
BRANCH   2   5
ATOM      5  C   GLN A   1      30.811   3.332  94.890  0.00  0.00    +0.224 C 
ATOM      6  O   GLN A   1      30.795   2.692  95.935  0.00  0.00    -0.287 OA
ENDBRANCH   2   5
ENDBRANCH   1   2
BRANCH   1   7
ATOM      7  CG  GLN A   1      33.851   3.132  94.892  0.00  0.00    +0.087 C 
BRANCH   7   8
ATOM      8  CD  GLN A   1      35.269   3.661  94.673  0.00  0.00    +0.219 C 
ATOM      9  NE2 GLN A   1      36.249   2.767  94.612  0.00  0.00    -0.329 N 
ATOM     10 HE21 GLN A   1      36.039   1.756  94.736  0.00  0.00    +0.145 HD
ATOM     11 HE22 GLN A   1      37.227   3.078  94.441  0.00  0.00    +0.145 HD
ATOM     12  OE1 GLN A   1      35.462   4.822  94.538  0.00  0.00    -0.275 OA
ENDBRANCH   7   8
ENDBRANCH   1   7
TORSDOF 5
REMARK  Name = ../refined-set-2016/3jup/3jup_pocket.pdb
REMARK  167 active torsions:
REMARK  status: ('A' for Active; 'I' for Inactive)
REMARK    1  A    between atoms: _1  and  _3
REMARK    2  A    between atoms: _3  and  _4
REMARK    3  A    between atoms: _3  and  _6
REMARK    4  A    between atoms: _6  and  _7
REMARK    5  A    between atoms: _12  and  _13
REMARK    6  A    between atoms: _15  and  _17
REMARK    7  A    between atoms: _17  and  _18
REMARK    8  A    between atoms: _17  and  _20
REMARK    9  A    between atoms: _20  and  _21
REMARK   10  A    between atoms: _21  and  _22
REMARK   11  A    between atoms: _22  and  _23
REMARK   12  A    between atoms: _32  and  _34
REMARK   13  A    between atoms: _34  and  _35
REMARK   14  A    between atoms: _34  and  _37
REMARK   15  A    between atoms: _37  and  _38
REMARK   16  A    between atoms: _38  and  _39
REMARK   17  A    between atoms: _39  and  _40
REMARK   18  A    between atoms: _49  and  _51
REMARK   19  A    between atoms: _51  and  _52
REMARK   20  A    between atoms: _54  and  _56
REMARK   21  A    between atoms: _56  and  _57
REMARK   22  A    between atoms: _59  and  _61
REMARK   23  A    between atoms: _61  and  _62
REMARK   24  A    between atoms: _61  and  _64
REMARK   25  A    between atoms: _64  and  _65
REMARK   26  A    between atoms: _68  and  _70
REMARK   27  A    between atoms: _70  and  _71
REMARK   28  A    between atoms: _70  and  _73
REMARK   29  A    between atoms: _73  and  _74
REMARK   30  A    between atoms: _84  and  _86
REMARK   31  A    between atoms: _86  and  _87
REMARK   32  A    between atoms: _86  and  _89
REMARK   33  A    between atoms: _89  and  _90
REMARK   34  A    between atoms: _93  and  _95
REMARK   35  A    between atoms: _95  and  _96
REMARK   36  A    between atoms: _95  and  _98
REMARK   37  A    between atoms: _98  and  _99
REMARK   38  A    between atoms: _102  and  _104
REMARK   39  A    between atoms: _104  and  _105
REMARK   40  A    between atoms: _104  and  _107
REMARK   41  A    between atoms: _107  and  _108
REMARK   42  A    between atoms: _112  and  _113
REMARK   43  A    between atoms: _118  and  _120
REMARK   44  A    between atoms: _120  and  _121
REMARK   45  A    between atoms: _120  and  _123
REMARK   46  A    between atoms: _123  and  _124
REMARK   47  A    between atoms: _127  and  _129
REMARK   48  A    between atoms: _129  and  _130
REMARK   49  A    between atoms: _133  and  _135
REMARK   50  A    between atoms: _135  and  _136
REMARK   51  A    between atoms: _135  and  _138
REMARK   52  A    between atoms: _138  and  _139
REMARK   53  A    between atoms: _142  and  _144
REMARK   54  A    between atoms: _144  and  _145
REMARK   55  A    between atoms: _144  and  _147
REMARK   56  A    between atoms: _147  and  _148
REMARK   57  A    between atoms: _151  and  _153
REMARK   58  A    between atoms: _153  and  _154
REMARK   59  A    between atoms: _153  and  _156
REMARK   60  A    between atoms: _156  and  _157
REMARK   61  A    between atoms: _162  and  _164
REMARK   62  A    between atoms: _164  and  _165
REMARK   63  A    between atoms: _168  and  _170
REMARK   64  A    between atoms: _170  and  _171
REMARK   65  A    between atoms: _170  and  _173
REMARK   66  A    between atoms: _173  and  _174
REMARK   67  A    between atoms: _184  and  _186
REMARK   68  A    between atoms: _186  and  _187
REMARK   69  A    between atoms: _186  and  _189
REMARK   70  A    between atoms: _189  and  _190
REMARK   71  A    between atoms: _192  and  _194
REMARK   72  A    between atoms: _194  and  _195
REMARK   73  A    between atoms: _194  and  _197
REMARK   74  A    between atoms: _197  and  _198
REMARK   75  A    between atoms: _201  and  _203
REMARK   76  A    between atoms: _203  and  _204
REMARK   77  A    between atoms: _203  and  _206
REMARK   78  A    between atoms: _208  and  _210
REMARK   79  A    between atoms: _210  and  _211
REMARK   80  A    between atoms: _210  and  _213
REMARK   81  A    between atoms: _213  and  _214
REMARK   82  A    between atoms: _221  and  _222
REMARK   83  A    between atoms: _227  and  _229
REMARK   84  A    between atoms: _229  and  _230
REMARK   85  A    between atoms: _229  and  _232
REMARK   86  A    between atoms: _232  and  _233
REMARK   87  A    between atoms: _243  and  _245
REMARK   88  A    between atoms: _245  and  _246
REMARK   89  A    between atoms: _245  and  _248
REMARK   90  A    between atoms: _251  and  _253
REMARK   91  A    between atoms: _253  and  _254
REMARK   92  A    between atoms: _253  and  _256
REMARK   93  A    between atoms: _256  and  _257
REMARK   94  A    between atoms: _267  and  _269
REMARK   95  A    between atoms: _269  and  _270
REMARK   96  A    between atoms: _272  and  _274
REMARK   97  A    between atoms: _274  and  _275
REMARK   98  A    between atoms: _274  and  _277
REMARK   99  A    between atoms: _277  and  _278
REMARK  100  A    between atoms: _278  and  _279
REMARK  101  A    between atoms: _282  and  _284
REMARK  102  A    between atoms: _284  and  _285
REMARK  103  A    between atoms: _287  and  _289
REMARK  104  A    between atoms: _289  and  _290
REMARK  105  A    between atoms: _293  and  _295
REMARK  106  A    between atoms: _295  and  _296
REMARK  107  A    between atoms: _295  and  _298
REMARK  108  A    between atoms: _298  and  _299
REMARK  109  A    between atoms: _302  and  _304
REMARK  110  A    between atoms: _304  and  _305
REMARK  111  A    between atoms: _304  and  _307
REMARK  112  A    between atoms: _307  and  _308
REMARK  113  A    between atoms: _314  and  _316
REMARK  114  A    between atoms: _316  and  _317
REMARK  115  A    between atoms: _316  and  _319
REMARK  116  A    between atoms: _319  and  _320
REMARK  117  A    between atoms: _325  and  _326
REMARK  118  A    between atoms: _328  and  _330
REMARK  119  A    between atoms: _330  and  _331
REMARK  120  A    between atoms: _330  and  _333
REMARK  121  A    between atoms: _333  and  _334
REMARK  122  A    between atoms: _339  and  _341
REMARK  123  A    between atoms: _341  and  _342
REMARK  124  A    between atoms: _341  and  _344
REMARK  125  A    between atoms: _344  and  _345
REMARK  126  A    between atoms: _351  and  _353
REMARK  127  A    between atoms: _353  and  _354
REMARK  128  A    between atoms: _353  and  _356
REMARK  129  A    between atoms: _356  and  _357
REMARK  130  A    between atoms: _362  and  _364
REMARK  131  A    between atoms: _364  and  _365
REMARK  132  A    between atoms: _364  and  _367
REMARK  133  A    between atoms: _367  and  _368
REMARK  134  A    between atoms: _368  and  _369
REMARK  135  A    between atoms: _374  and  _376
REMARK  136  A    between atoms: _376  and  _377
REMARK  137  A    between atoms: _376  and  _379
REMARK  138  A    between atoms: _379  and  _380
REMARK  139  A    between atoms: _380  and  _381
REMARK  140  A    between atoms: _384  and  _386
REMARK  141  A    between atoms: _386  and  _387
REMARK  142  A    between atoms: _386  and  _389
REMARK  143  A    between atoms: _389  and  _390
REMARK  144  A    between atoms: _390  and  _391
REMARK  145  A    between atoms: _393  and  _395
REMARK  146  A    between atoms: _395  and  _396
REMARK  147  A    between atoms: _395  and  _398
REMARK  148  A    between atoms: _398  and  _399
REMARK  149  A    between atoms: _399  and  _400
REMARK  150  A    between atoms: _405  and  _407
REMARK  151  A    between atoms: _407  and  _408
REMARK  152  A    between atoms: _407  and  _410
REMARK  153  A    between atoms: _410  and  _411
REMARK  154  A    between atoms: _414  and  _416
REMARK  155  A    between atoms: _416  and  _417
REMARK  156  A    between atoms: _416  and  _419
REMARK  157  A    between atoms: _422  and  _424
REMARK  158  A    between atoms: _424  and  _425
REMARK  159  A    between atoms: _424  and  _427
REMARK  160  A    between atoms: _427  and  _428
REMARK  161  A    between atoms: _428  and  _429
REMARK  162  A    between atoms: _429  and  _430
REMARK  163  A    between atoms: _439  and  _441
REMARK  164  A    between atoms: _441  and  _442
REMARK  165  A    between atoms: _441  and  _444
REMARK  166  A    between atoms: _444  and  _445
REMARK  167  A    between atoms: _449  and  _450
REMARK                            x       y       z     vdW  Elec       q    Type
REMARK                         _______ _______ _______ _____ _____    ______ ____
ROOT
ATOM      1  CA  LEU A   1      29.706   1.511  99.799  0.00  0.00    +0.133 C 
ENDROOT
BRANCH   1   2
ATOM      2  N   LEU A   1      29.417   1.070  98.421  0.00  0.00    -0.239 NA
ATOM      3  H   LEU A   1      29.283   1.803  97.695  0.00  0.00    +0.142 HD
ENDBRANCH   1   2
BRANCH   1   4
ATOM      4  C   LEU A   1      28.466   1.908 100.575  0.00  0.00    +0.224 C 
ATOM      5  O   LEU A   1      28.549   2.302 101.766  0.00  0.00    -0.287 OA
ENDBRANCH   1   4
BRANCH   1   6
ATOM      6  CB  LEU A   1      30.708   2.674  99.766  0.00  0.00    +0.025 C 
BRANCH   6   7
ATOM      7  CG  LEU A   1      32.126   2.319  99.242  0.00  0.00    +0.002 C 
ATOM      8  CD2 LEU A   1      32.810   1.484 100.276  0.00  0.00    +0.000 C 
ATOM      9  CD1 LEU A   1      32.973   3.594  98.898  0.00  0.00    +0.000 C 
ENDBRANCH   6   7
ENDBRANCH   1   6
TORSDOF 4
REMARK  Name = ../refined-set-2016/3jup/3jup_pocket.pdb
REMARK  167 active torsions:
REMARK  status: ('A' for Active; 'I' for Inactive)
REMARK    1  A    between atoms: _1  and  _3
REMARK    2  A    between atoms: _3  and  _4
REMARK    3  A    between atoms: _3  and  _6
REMARK    4  A    between atoms: _6  and  _7
REMARK    5  A    between atoms: _12  and  _13
REMARK    6  A    between atoms: _15  and  _17
REMARK    7  A    between atoms: _17  and  _18
REMARK    8  A    between atoms: _17  and  _20
REMARK    9  A    between atoms: _20  and  _21
REMARK   10  A    between atoms: _21  and  _22
REMARK   11  A    between atoms: _22  and  _23
REMARK   12  A    between atoms: _32  and  _34
REMARK   13  A    between atoms: _34  and  _35
REMARK   14  A    between atoms: _34  and  _37
REMARK   15  A    between atoms: _37  and  _38
REMARK   16  A    between atoms: _38  and  _39
REMARK   17  A    between atoms: _39  and  _40
REMARK   18  A    between atoms: _49  and  _51
REMARK   19  A    between atoms: _51  and  _52
REMARK   20  A    between atoms: _54  and  _56
REMARK   21  A    between atoms: _56  and  _57
REMARK   22  A    between atoms: _59  and  _61
REMARK   23  A    between atoms: _61  and  _62
REMARK   24  A    between atoms: _61  and  _64
REMARK   25  A    between atoms: _64  and  _65
REMARK   26  A    between atoms: _68  and  _70
REMARK   27  A    between atoms: _70  and  _71
REMARK   28  A    between atoms: _70  and  _73
REMARK   29  A    between atoms: _73  and  _74
REMARK   30  A    between atoms: _84  and  _86
REMARK   31  A    between atoms: _86  and  _87
REMARK   32  A    between atoms: _86  and  _89
REMARK   33  A    between atoms: _89  and  _90
REMARK   34  A    between atoms: _93  and  _95
REMARK   35  A    between atoms: _95  and  _96
REMARK   36  A    between atoms: _95  and  _98
REMARK   37  A    between atoms: _98  and  _99
REMARK   38  A    between atoms: _102  and  _104
REMARK   39  A    between atoms: _104  and  _105
REMARK   40  A    between atoms: _104  and  _107
REMARK   41  A    between atoms: _107  and  _108
REMARK   42  A    between atoms: _112  and  _113
REMARK   43  A    between atoms: _118  and  _120
REMARK   44  A    between atoms: _120  and  _121
REMARK   45  A    between atoms: _120  and  _123
REMARK   46  A    between atoms: _123  and  _124
REMARK   47  A    between atoms: _127  and  _129
REMARK   48  A    between atoms: _129  and  _130
REMARK   49  A    between atoms: _133  and  _135
REMARK   50  A    between atoms: _135  and  _136
REMARK   51  A    between atoms: _135  and  _138
REMARK   52  A    between atoms: _138  and  _139
REMARK   53  A    between atoms: _142  and  _144
REMARK   54  A    between atoms: _144  and  _145
REMARK   55  A    between atoms: _144  and  _147
REMARK   56  A    between atoms: _147  and  _148
REMARK   57  A    between atoms: _151  and  _153
REMARK   58  A    between atoms: _153  and  _154
REMARK   59  A    between atoms: _153  and  _156
REMARK   60  A    between atoms: _156  and  _157
REMARK   61  A    between atoms: _162  and  _164
REMARK   62  A    between atoms: _164  and  _165
REMARK   63  A    between atoms: _168  and  _170
REMARK   64  A    between atoms: _170  and  _171
REMARK   65  A    between atoms: _170  and  _173
REMARK   66  A    between atoms: _173  and  _174
REMARK   67  A    between atoms: _184  and  _186
REMARK   68  A    between atoms: _186  and  _187
REMARK   69  A    between atoms: _186  and  _189
REMARK   70  A    between atoms: _189  and  _190
REMARK   71  A    between atoms: _192  and  _194
REMARK   72  A    between atoms: _194  and  _195
REMARK   73  A    between atoms: _194  and  _197
REMARK   74  A    between atoms: _197  and  _198
REMARK   75  A    between atoms: _201  and  _203
REMARK   76  A    between atoms: _203  and  _204
REMARK   77  A    between atoms: _203  and  _206
REMARK   78  A    between atoms: _208  and  _210
REMARK   79  A    between atoms: _210  and  _211
REMARK   80  A    between atoms: _210  and  _213
REMARK   81  A    between atoms: _213  and  _214
REMARK   82  A    between atoms: _221  and  _222
REMARK   83  A    between atoms: _227  and  _229
REMARK   84  A    between atoms: _229  and  _230
REMARK   85  A    between atoms: _229  and  _232
REMARK   86  A    between atoms: _232  and  _233
REMARK   87  A    between atoms: _243  and  _245
REMARK   88  A    between atoms: _245  and  _246
REMARK   89  A    between atoms: _245  and  _248
REMARK   90  A    between atoms: _251  and  _253
REMARK   91  A    between atoms: _253  and  _254
REMARK   92  A    between atoms: _253  and  _256
REMARK   93  A    between atoms: _256  and  _257
REMARK   94  A    between atoms: _267  and  _269
REMARK   95  A    between atoms: _269  and  _270
REMARK   96  A    between atoms: _272  and  _274
REMARK   97  A    between atoms: _274  and  _275
REMARK   98  A    between atoms: _274  and  _277
REMARK   99  A    between atoms: _277  and  _278
REMARK  100  A    between atoms: _278  and  _279
REMARK  101  A    between atoms: _282  and  _284
REMARK  102  A    between atoms: _284  and  _285
REMARK  103  A    between atoms: _287  and  _289
REMARK  104  A    between atoms: _289  and  _290
REMARK  105  A    between atoms: _293  and  _295
REMARK  106  A    between atoms: _295  and  _296
REMARK  107  A    between atoms: _295  and  _298
REMARK  108  A    between atoms: _298  and  _299
REMARK  109  A    between atoms: _302  and  _304
REMARK  110  A    between atoms: _304  and  _305
REMARK  111  A    between atoms: _304  and  _307
REMARK  112  A    between atoms: _307  and  _308
REMARK  113  A    between atoms: _314  and  _316
REMARK  114  A    between atoms: _316  and  _317
REMARK  115  A    between atoms: _316  and  _319
REMARK  116  A    between atoms: _319  and  _320
REMARK  117  A    between atoms: _325  and  _326
REMARK  118  A    between atoms: _328  and  _330
REMARK  119  A    between atoms: _330  and  _331
REMARK  120  A    between atoms: _330  and  _333
REMARK  121  A    between atoms: _333  and  _334
REMARK  122  A    between atoms: _339  and  _341
REMARK  123  A    between atoms: _341  and  _342
REMARK  124  A    between atoms: _341  and  _344
REMARK  125  A    between atoms: _344  and  _345
REMARK  126  A    between atoms: _351  and  _353
REMARK  127  A    between atoms: _353  and  _354
REMARK  128  A    between atoms: _353  and  _356
REMARK  129  A    between atoms: _356  and  _357
REMARK  130  A    between atoms: _362  and  _364
REMARK  131  A    between atoms: _364  and  _365
REMARK  132  A    between atoms: _364  and  _367
REMARK  133  A    between atoms: _367  and  _368
REMARK  134  A    between atoms: _368  and  _369
REMARK  135  A    between atoms: _374  and  _376
REMARK  136  A    between atoms: _376  and  _377
REMARK  137  A    between atoms: _376  and  _379
REMARK  138  A    between atoms: _379  and  _380
REMARK  139  A    between atoms: _380  and  _381
REMARK  140  A    between atoms: _384  and  _386
REMARK  141  A    between atoms: _386  and  _387
REMARK  142  A    between atoms: _386  and  _389
REMARK  143  A    between atoms: _389  and  _390
REMARK  144  A    between atoms: _390  and  _391
REMARK  145  A    between atoms: _393  and  _395
REMARK  146  A    between atoms: _395  and  _396
REMARK  147  A    between atoms: _395  and  _398
REMARK  148  A    between atoms: _398  and  _399
REMARK  149  A    between atoms: _399  and  _400
REMARK  150  A    between atoms: _405  and  _407
REMARK  151  A    between atoms: _407  and  _408
REMARK  152  A    between atoms: _407  and  _410
REMARK  153  A    between atoms: _410  and  _411
REMARK  154  A    between atoms: _414  and  _416
REMARK  155  A    between atoms: _416  and  _417
REMARK  156  A    between atoms: _416  and  _419
REMARK  157  A    between atoms: _422  and  _424
REMARK  158  A    between atoms: _424  and  _425
REMARK  159  A    between atoms: _424  and  _427
REMARK  160  A    between atoms: _427  and  _428
REMARK  161  A    between atoms: _428  and  _429
REMARK  162  A    between atoms: _429  and  _430
REMARK  163  A    between atoms: _439  and  _441
REMARK  164  A    between atoms: _441  and  _442
REMARK  165  A    between atoms: _441  and  _444
REMARK  166  A    between atoms: _444  and  _445
REMARK  167  A    between atoms: _449  and  _450
REMARK                            x       y       z     vdW  Elec       q    Type
REMARK                         _______ _______ _______ _____ _____    ______ ____
ROOT
ATOM      1  CA  VAL A   1      34.200   8.684  99.458  0.00  0.00    +0.133 C 
ENDROOT
BRANCH   1   2
ATOM      2  CB  VAL A   1      34.578   7.726  98.291  0.00  0.00    +0.023 C 
ATOM      3  CG2 VAL A   1      35.175   6.419  98.843  0.00  0.00    +0.002 C 
ATOM      4  CG1 VAL A   1      33.354   7.407  97.425  0.00  0.00    +0.002 C 
ENDBRANCH   1   2
BRANCH   1   5
ATOM      5  N   VAL A   1      33.720   9.960  98.970  0.00  0.00    -0.239 NA
ATOM      6  H   VAL A   1      34.113  10.349  98.089  0.00  0.00    +0.142 HD
ENDBRANCH   1   5
BRANCH   1   7
ATOM      7  C   VAL A   1      35.430   9.008 100.286  0.00  0.00    +0.224 C 
ATOM      8  O   VAL A   1      36.335   9.663  99.805  0.00  0.00    -0.287 OA
ENDBRANCH   1   7
TORSDOF 3
REMARK  Name = ../refined-set-2016/3jup/3jup_pocket.pdb
REMARK  167 active torsions:
REMARK  status: ('A' for Active; 'I' for Inactive)
REMARK    1  A    between atoms: _1  and  _3
REMARK    2  A    between atoms: _3  and  _4
REMARK    3  A    between atoms: _3  and  _6
REMARK    4  A    between atoms: _6  and  _7
REMARK    5  A    between atoms: _12  and  _13
REMARK    6  A    between atoms: _15  and  _17
REMARK    7  A    between atoms: _17  and  _18
REMARK    8  A    between atoms: _17  and  _20
REMARK    9  A    between atoms: _20  and  _21
REMARK   10  A    between atoms: _21  and  _22
REMARK   11  A    between atoms: _22  and  _23
REMARK   12  A    between atoms: _32  and  _34
REMARK   13  A    between atoms: _34  and  _35
REMARK   14  A    between atoms: _34  and  _37
REMARK   15  A    between atoms: _37  and  _38
REMARK   16  A    between atoms: _38  and  _39
REMARK   17  A    between atoms: _39  and  _40
REMARK   18  A    between atoms: _49  and  _51
REMARK   19  A    between atoms: _51  and  _52
REMARK   20  A    between atoms: _54  and  _56
REMARK   21  A    between atoms: _56  and  _57
REMARK   22  A    between atoms: _59  and  _61
REMARK   23  A    between atoms: _61  and  _62
REMARK   24  A    between atoms: _61  and  _64
REMARK   25  A    between atoms: _64  and  _65
REMARK   26  A    between atoms: _68  and  _70
REMARK   27  A    between atoms: _70  and  _71
REMARK   28  A    between atoms: _70  and  _73
REMARK   29  A    between atoms: _73  and  _74
REMARK   30  A    between atoms: _84  and  _86
REMARK   31  A    between atoms: _86  and  _87
REMARK   32  A    between atoms: _86  and  _89
REMARK   33  A    between atoms: _89  and  _90
REMARK   34  A    between atoms: _93  and  _95
REMARK   35  A    between atoms: _95  and  _96
REMARK   36  A    between atoms: _95  and  _98
REMARK   37  A    between atoms: _98  and  _99
REMARK   38  A    between atoms: _102  and  _104
REMARK   39  A    between atoms: _104  and  _105
REMARK   40  A    between atoms: _104  and  _107
REMARK   41  A    between atoms: _107  and  _108
REMARK   42  A    between atoms: _112  and  _113
REMARK   43  A    between atoms: _118  and  _120
REMARK   44  A    between atoms: _120  and  _121
REMARK   45  A    between atoms: _120  and  _123
REMARK   46  A    between atoms: _123  and  _124
REMARK   47  A    between atoms: _127  and  _129
REMARK   48  A    between atoms: _129  and  _130
REMARK   49  A    between atoms: _133  and  _135
REMARK   50  A    between atoms: _135  and  _136
REMARK   51  A    between atoms: _135  and  _138
REMARK   52  A    between atoms: _138  and  _139
REMARK   53  A    between atoms: _142  and  _144
REMARK   54  A    between atoms: _144  and  _145
REMARK   55  A    between atoms: _144  and  _147
REMARK   56  A    between atoms: _147  and  _148
REMARK   57  A    between atoms: _151  and  _153
REMARK   58  A    between atoms: _153  and  _154
REMARK   59  A    between atoms: _153  and  _156
REMARK   60  A    between atoms: _156  and  _157
REMARK   61  A    between atoms: _162  and  _164
REMARK   62  A    between atoms: _164  and  _165
REMARK   63  A    between atoms: _168  and  _170
REMARK   64  A    between atoms: _170  and  _171
REMARK   65  A    between atoms: _170  and  _173
REMARK   66  A    between atoms: _173  and  _174
REMARK   67  A    between atoms: _184  and  _186
REMARK   68  A    between atoms: _186  and  _187
REMARK   69  A    between atoms: _186  and  _189
REMARK   70  A    between atoms: _189  and  _190
REMARK   71  A    between atoms: _192  and  _194
REMARK   72  A    between atoms: _194  and  _195
REMARK   73  A    between atoms: _194  and  _197
REMARK   74  A    between atoms: _197  and  _198
REMARK   75  A    between atoms: _201  and  _203
REMARK   76  A    between atoms: _203  and  _204
REMARK   77  A    between atoms: _203  and  _206
REMARK   78  A    between atoms: _208  and  _210
REMARK   79  A    between atoms: _210  and  _211
REMARK   80  A    between atoms: _210  and  _213
REMARK   81  A    between atoms: _213  and  _214
REMARK   82  A    between atoms: _221  and  _222
REMARK   83  A    between atoms: _227  and  _229
REMARK   84  A    between atoms: _229  and  _230
REMARK   85  A    between atoms: _229  and  _232
REMARK   86  A    between atoms: _232  and  _233
REMARK   87  A    between atoms: _243  and  _245
REMARK   88  A    between atoms: _245  and  _246
REMARK   89  A    between atoms: _245  and  _248
REMARK   90  A    between atoms: _251  and  _253
REMARK   91  A    between atoms: _253  and  _254
REMARK   92  A    between atoms: _253  and  _256
REMARK   93  A    between atoms: _256  and  _257
REMARK   94  A    between atoms: _267  and  _269
REMARK   95  A    between atoms: _269  and  _270
REMARK   96  A    between atoms: _272  and  _274
REMARK   97  A    between atoms: _274  and  _275
REMARK   98  A    between atoms: _274  and  _277
REMARK   99  A    between atoms: _277  and  _278
REMARK  100  A    between atoms: _278  and  _279
REMARK  101  A    between atoms: _282  and  _284
REMARK  102  A    between atoms: _284  and  _285
REMARK  103  A    between atoms: _287  and  _289
REMARK  104  A    between atoms: _289  and  _290
REMARK  105  A    between atoms: _293  and  _295
REMARK  106  A    between atoms: _295  and  _296
REMARK  107  A    between atoms: _295  and  _298
REMARK  108  A    between atoms: _298  and  _299
REMARK  109  A    between atoms: _302  and  _304
REMARK  110  A    between atoms: _304  and  _305
REMARK  111  A    between atoms: _304  and  _307
REMARK  112  A    between atoms: _307  and  _308
REMARK  113  A    between atoms: _314  and  _316
REMARK  114  A    between atoms: _316  and  _317
REMARK  115  A    between atoms: _316  and  _319
REMARK  116  A    between atoms: _319  and  _320
REMARK  117  A    between atoms: _325  and  _326
REMARK  118  A    between atoms: _328  and  _330
REMARK  119  A    between atoms: _330  and  _331
REMARK  120  A    between atoms: _330  and  _333
REMARK  121  A    between atoms: _333  and  _334
REMARK  122  A    between atoms: _339  and  _341
REMARK  123  A    between atoms: _341  and  _342
REMARK  124  A    between atoms: _341  and  _344
REMARK  125  A    between atoms: _344  and  _345
REMARK  126  A    between atoms: _351  and  _353
REMARK  127  A    between atoms: _353  and  _354
REMARK  128  A    between atoms: _353  and  _356
REMARK  129  A    between atoms: _356  and  _357
REMARK  130  A    between atoms: _362  and  _364
REMARK  131  A    between atoms: _364  and  _365
REMARK  132  A    between atoms: _364  and  _367
REMARK  133  A    between atoms: _367  and  _368
REMARK  134  A    between atoms: _368  and  _369
REMARK  135  A    between atoms: _374  and  _376
REMARK  136  A    between atoms: _376  and  _377
REMARK  137  A    between atoms: _376  and  _379
REMARK  138  A    between atoms: _379  and  _380
REMARK  139  A    between atoms: _380  and  _381
REMARK  140  A    between atoms: _384  and  _386
REMARK  141  A    between atoms: _386  and  _387
REMARK  142  A    between atoms: _386  and  _389
REMARK  143  A    between atoms: _389  and  _390
REMARK  144  A    between atoms: _390  and  _391
REMARK  145  A    between atoms: _393  and  _395
REMARK  146  A    between atoms: _395  and  _396
REMARK  147  A    between atoms: _395  and  _398
REMARK  148  A    between atoms: _398  and  _399
REMARK  149  A    between atoms: _399  and  _400
REMARK  150  A    between atoms: _405  and  _407
REMARK  151  A    between atoms: _407  and  _408
REMARK  152  A    between atoms: _407  and  _410
REMARK  153  A    between atoms: _410  and  _411
REMARK  154  A    between atoms: _414  and  _416
REMARK  155  A    between atoms: _416  and  _417
REMARK  156  A    between atoms: _416  and  _419
REMARK  157  A    between atoms: _422  and  _424
REMARK  158  A    between atoms: _424  and  _425
REMARK  159  A    between atoms: _424  and  _427
REMARK  160  A    between atoms: _427  and  _428
REMARK  161  A    between atoms: _428  and  _429
REMARK  162  A    between atoms: _429  and  _430
REMARK  163  A    between atoms: _439  and  _441
REMARK  164  A    between atoms: _441  and  _442
REMARK  165  A    between atoms: _441  and  _444
REMARK  166  A    between atoms: _444  and  _445
REMARK  167  A    between atoms: _449  and  _450
REMARK                            x       y       z     vdW  Elec       q    Type
REMARK                         _______ _______ _______ _____ _____    ______ ____
ROOT
ATOM      1  NE  ARG A   1      39.284   6.227  96.563  0.00  0.00    -0.265 N 
ATOM      2  HE  ARG A   1      39.135   5.262  96.204  0.00  0.00    +0.259 HD
ATOM      3  CZ  ARG A   1      38.550   7.200  96.026  0.00  0.00    +0.342 C 
ATOM      4  NH2 ARG A   1      38.725   8.482  96.374  0.00  0.00    -0.292 N 
ATOM      5 HH21 ARG A   1      39.447   8.736  97.078  0.00  0.00    +0.255 HD
ATOM      6 HH22 ARG A   1      38.139   9.223  95.940  0.00  0.00    +0.255 HD
ATOM      7  NH1 ARG A   1      37.654   6.888  95.088  0.00  0.00    -0.292 N 
ATOM      8 HH11 ARG A   1      37.538   5.899  94.788  0.00  0.00    +0.255 HD
ATOM      9 HH12 ARG A   1      37.071   7.634  94.657  0.00  0.00    +0.255 HD
ENDROOT
BRANCH   1  10
ATOM     10  CD  ARG A   1      40.289   6.406  97.623  0.00  0.00    +0.174 C 
BRANCH  10  11
ATOM     11  CG  ARG A   1      39.574   6.513  99.005  0.00  0.00    +0.045 C 
BRANCH  11  12
ATOM     12  CB  ARG A   1      40.475   6.879 100.170  0.00  0.00    +0.029 C 
BRANCH  12  13
ATOM     13  CA  ARG A   1      39.789   6.672 101.533  0.00  0.00    +0.133 C 
BRANCH  13  14
ATOM     14  N   ARG A   1      38.852   7.755 101.820  0.00  0.00    -0.239 NA
ATOM     15  H   ARG A   1      39.182   8.741 101.802  0.00  0.00    +0.142 HD
ENDBRANCH  13  14
BRANCH  13  16
ATOM     16  C   ARG A   1      40.808   6.583 102.657  0.00  0.00    +0.224 C 
ATOM     17  O   ARG A   1      41.989   6.726 102.414  0.00  0.00    -0.287 OA
ENDBRANCH  13  16
ENDBRANCH  12  13
ENDBRANCH  11  12
ENDBRANCH  10  11
ENDBRANCH   1  10
TORSDOF 6
REMARK  Name = ../refined-set-2016/3jup/3jup_pocket.pdb
REMARK  167 active torsions:
REMARK  status: ('A' for Active; 'I' for Inactive)
REMARK    1  A    between atoms: _1  and  _3
REMARK    2  A    between atoms: _3  and  _4
REMARK    3  A    between atoms: _3  and  _6
REMARK    4  A    between atoms: _6  and  _7
REMARK    5  A    between atoms: _12  and  _13
REMARK    6  A    between atoms: _15  and  _17
REMARK    7  A    between atoms: _17  and  _18
REMARK    8  A    between atoms: _17  and  _20
REMARK    9  A    between atoms: _20  and  _21
REMARK   10  A    between atoms: _21  and  _22
REMARK   11  A    between atoms: _22  and  _23
REMARK   12  A    between atoms: _32  and  _34
REMARK   13  A    between atoms: _34  and  _35
REMARK   14  A    between atoms: _34  and  _37
REMARK   15  A    between atoms: _37  and  _38
REMARK   16  A    between atoms: _38  and  _39
REMARK   17  A    between atoms: _39  and  _40
REMARK   18  A    between atoms: _49  and  _51
REMARK   19  A    between atoms: _51  and  _52
REMARK   20  A    between atoms: _54  and  _56
REMARK   21  A    between atoms: _56  and  _57
REMARK   22  A    between atoms: _59  and  _61
REMARK   23  A    between atoms: _61  and  _62
REMARK   24  A    between atoms: _61  and  _64
REMARK   25  A    between atoms: _64  and  _65
REMARK   26  A    between atoms: _68  and  _70
REMARK   27  A    between atoms: _70  and  _71
REMARK   28  A    between atoms: _70  and  _73
REMARK   29  A    between atoms: _73  and  _74
REMARK   30  A    between atoms: _84  and  _86
REMARK   31  A    between atoms: _86  and  _87
REMARK   32  A    between atoms: _86  and  _89
REMARK   33  A    between atoms: _89  and  _90
REMARK   34  A    between atoms: _93  and  _95
REMARK   35  A    between atoms: _95  and  _96
REMARK   36  A    between atoms: _95  and  _98
REMARK   37  A    between atoms: _98  and  _99
REMARK   38  A    between atoms: _102  and  _104
REMARK   39  A    between atoms: _104  and  _105
REMARK   40  A    between atoms: _104  and  _107
REMARK   41  A    between atoms: _107  and  _108
REMARK   42  A    between atoms: _112  and  _113
REMARK   43  A    between atoms: _118  and  _120
REMARK   44  A    between atoms: _120  and  _121
REMARK   45  A    between atoms: _120  and  _123
REMARK   46  A    between atoms: _123  and  _124
REMARK   47  A    between atoms: _127  and  _129
REMARK   48  A    between atoms: _129  and  _130
REMARK   49  A    between atoms: _133  and  _135
REMARK   50  A    between atoms: _135  and  _136
REMARK   51  A    between atoms: _135  and  _138
REMARK   52  A    between atoms: _138  and  _139
REMARK   53  A    between atoms: _142  and  _144
REMARK   54  A    between atoms: _144  and  _145
REMARK   55  A    between atoms: _144  and  _147
REMARK   56  A    between atoms: _147  and  _148
REMARK   57  A    between atoms: _151  and  _153
REMARK   58  A    between atoms: _153  and  _154
REMARK   59  A    between atoms: _153  and  _156
REMARK   60  A    between atoms: _156  and  _157
REMARK   61  A    between atoms: _162  and  _164
REMARK   62  A    between atoms: _164  and  _165
REMARK   63  A    between atoms: _168  and  _170
REMARK   64  A    between atoms: _170  and  _171
REMARK   65  A    between atoms: _170  and  _173
REMARK   66  A    between atoms: _173  and  _174
REMARK   67  A    between atoms: _184  and  _186
REMARK   68  A    between atoms: _186  and  _187
REMARK   69  A    between atoms: _186  and  _189
REMARK   70  A    between atoms: _189  and  _190
REMARK   71  A    between atoms: _192  and  _194
REMARK   72  A    between atoms: _194  and  _195
REMARK   73  A    between atoms: _194  and  _197
REMARK   74  A    between atoms: _197  and  _198
REMARK   75  A    between atoms: _201  and  _203
REMARK   76  A    between atoms: _203  and  _204
REMARK   77  A    between atoms: _203  and  _206
REMARK   78  A    between atoms: _208  and  _210
REMARK   79  A    between atoms: _210  and  _211
REMARK   80  A    between atoms: _210  and  _213
REMARK   81  A    between atoms: _213  and  _214
REMARK   82  A    between atoms: _221  and  _222
REMARK   83  A    between atoms: _227  and  _229
REMARK   84  A    between atoms: _229  and  _230
REMARK   85  A    between atoms: _229  and  _232
REMARK   86  A    between atoms: _232  and  _233
REMARK   87  A    between atoms: _243  and  _245
REMARK   88  A    between atoms: _245  and  _246
REMARK   89  A    between atoms: _245  and  _248
REMARK   90  A    between atoms: _251  and  _253
REMARK   91  A    between atoms: _253  and  _254
REMARK   92  A    between atoms: _253  and  _256
REMARK   93  A    between atoms: _256  and  _257
REMARK   94  A    between atoms: _267  and  _269
REMARK   95  A    between atoms: _269  and  _270
REMARK   96  A    between atoms: _272  and  _274
REMARK   97  A    between atoms: _274  and  _275
REMARK   98  A    between atoms: _274  and  _277
REMARK   99  A    between atoms: _277  and  _278
REMARK  100  A    between atoms: _278  and  _279
REMARK  101  A    between atoms: _282  and  _284
REMARK  102  A    between atoms: _284  and  _285
REMARK  103  A    between atoms: _287  and  _289
REMARK  104  A    between atoms: _289  and  _290
REMARK  105  A    between atoms: _293  and  _295
REMARK  106  A    between atoms: _295  and  _296
REMARK  107  A    between atoms: _295  and  _298
REMARK  108  A    between atoms: _298  and  _299
REMARK  109  A    between atoms: _302  and  _304
REMARK  110  A    between atoms: _304  and  _305
REMARK  111  A    between atoms: _304  and  _307
REMARK  112  A    between atoms: _307  and  _308
REMARK  113  A    between atoms: _314  and  _316
REMARK  114  A    between atoms: _316  and  _317
REMARK  115  A    between atoms: _316  and  _319
REMARK  116  A    between atoms: _319  and  _320
REMARK  117  A    between atoms: _325  and  _326
REMARK  118  A    between atoms: _328  and  _330
REMARK  119  A    between atoms: _330  and  _331
REMARK  120  A    between atoms: _330  and  _333
REMARK  121  A    between atoms: _333  and  _334
REMARK  122  A    between atoms: _339  and  _341
REMARK  123  A    between atoms: _341  and  _342
REMARK  124  A    between atoms: _341  and  _344
REMARK  125  A    between atoms: _344  and  _345
REMARK  126  A    between atoms: _351  and  _353
REMARK  127  A    between atoms: _353  and  _354
REMARK  128  A    between atoms: _353  and  _356
REMARK  129  A    between atoms: _356  and  _357
REMARK  130  A    between atoms: _362  and  _364
REMARK  131  A    between atoms: _364  and  _365
REMARK  132  A    between atoms: _364  and  _367
REMARK  133  A    between atoms: _367  and  _368
REMARK  134  A    between atoms: _368  and  _369
REMARK  135  A    between atoms: _374  and  _376
REMARK  136  A    between atoms: _376  and  _377
REMARK  137  A    between atoms: _376  and  _379
REMARK  138  A    between atoms: _379  and  _380
REMARK  139  A    between atoms: _380  and  _381
REMARK  140  A    between atoms: _384  and  _386
REMARK  141  A    between atoms: _386  and  _387
REMARK  142  A    between atoms: _386  and  _389
REMARK  143  A    between atoms: _389  and  _390
REMARK  144  A    between atoms: _390  and  _391
REMARK  145  A    between atoms: _393  and  _395
REMARK  146  A    between atoms: _395  and  _396
REMARK  147  A    between atoms: _395  and  _398
REMARK  148  A    between atoms: _398  and  _399
REMARK  149  A    between atoms: _399  and  _400
REMARK  150  A    between atoms: _405  and  _407
REMARK  151  A    between atoms: _407  and  _408
REMARK  152  A    between atoms: _407  and  _410
REMARK  153  A    between atoms: _410  and  _411
REMARK  154  A    between atoms: _414  and  _416
REMARK  155  A    between atoms: _416  and  _417
REMARK  156  A    between atoms: _416  and  _419
REMARK  157  A    between atoms: _422  and  _424
REMARK  158  A    between atoms: _424  and  _425
REMARK  159  A    between atoms: _424  and  _427
REMARK  160  A    between atoms: _427  and  _428
REMARK  161  A    between atoms: _428  and  _429
REMARK  162  A    between atoms: _429  and  _430
REMARK  163  A    between atoms: _439  and  _441
REMARK  164  A    between atoms: _441  and  _442
REMARK  165  A    between atoms: _441  and  _444
REMARK  166  A    between atoms: _444  and  _445
REMARK  167  A    between atoms: _449  and  _450
REMARK                            x       y       z     vdW  Elec       q    Type
REMARK                         _______ _______ _______ _____ _____    ______ ____
ROOT
ATOM      1  C   LEU A   1      46.610   6.359 101.440  0.00  0.00    +0.241 C 
ATOM      2  O   LEU A   1      46.685   7.503 101.901  0.00  0.00    -0.273 OA
ATOM      3  N   PRO A   2      47.678   5.643 101.043  0.00  0.00    -0.273 N 
ATOM      4  CA  PRO A   2      49.030   6.154 101.189  0.00  0.00    +0.140 C 
ATOM      5  CB  PRO A   2      49.895   5.028 100.605  0.00  0.00    +0.030 C 
ATOM      6  CG  PRO A   2      49.141   3.828 100.976  0.00  0.00    +0.024 C 
ATOM      7  CD  PRO A   2      47.721   4.229 100.621  0.00  0.00    +0.094 C 
ENDROOT
BRANCH   4   8
ATOM      8  C   PRO A   2      49.234   7.452 100.481  0.00  0.00    +0.227 C 
ATOM      9  O   PRO A   2      48.672   7.715  99.390  0.00  0.00    -0.286 OA
ENDBRANCH   4   8
BRANCH   1  10
ATOM     10  CA  LEU A   1      45.257   5.685 101.303  0.00  0.00    +0.145 C 
BRANCH  10  11
ATOM     11  N   LEU A   1      44.678   5.593 102.641  0.00  0.00    -0.238 NA
ATOM     12  H   LEU A   1      43.787   6.083 102.858  0.00  0.00    +0.142 HD
ENDBRANCH  10  11
BRANCH  10  13
ATOM     13  CB  LEU A   1      44.378   6.465 100.323  0.00  0.00    +0.026 C 
BRANCH  13  14
ATOM     14  CG  LEU A   1      44.930   6.820  98.925  0.00  0.00    +0.002 C 
ATOM     15  CD2 LEU A   1      43.908   7.715  98.259  0.00  0.00    +0.000 C 
ATOM     16  CD1 LEU A   1      45.272   5.644  98.017  0.00  0.00    +0.000 C 
ENDBRANCH  13  14
ENDBRANCH  10  13
ENDBRANCH   1  10
TORSDOF 5
REMARK  Name = ../refined-set-2016/3jup/3jup_pocket.pdb
REMARK  167 active torsions:
REMARK  status: ('A' for Active; 'I' for Inactive)
REMARK    1  A    between atoms: _1  and  _3
REMARK    2  A    between atoms: _3  and  _4
REMARK    3  A    between atoms: _3  and  _6
REMARK    4  A    between atoms: _6  and  _7
REMARK    5  A    between atoms: _12  and  _13
REMARK    6  A    between atoms: _15  and  _17
REMARK    7  A    between atoms: _17  and  _18
REMARK    8  A    between atoms: _17  and  _20
REMARK    9  A    between atoms: _20  and  _21
REMARK   10  A    between atoms: _21  and  _22
REMARK   11  A    between atoms: _22  and  _23
REMARK   12  A    between atoms: _32  and  _34
REMARK   13  A    between atoms: _34  and  _35
REMARK   14  A    between atoms: _34  and  _37
REMARK   15  A    between atoms: _37  and  _38
REMARK   16  A    between atoms: _38  and  _39
REMARK   17  A    between atoms: _39  and  _40
REMARK   18  A    between atoms: _49  and  _51
REMARK   19  A    between atoms: _51  and  _52
REMARK   20  A    between atoms: _54  and  _56
REMARK   21  A    between atoms: _56  and  _57
REMARK   22  A    between atoms: _59  and  _61
REMARK   23  A    between atoms: _61  and  _62
REMARK   24  A    between atoms: _61  and  _64
REMARK   25  A    between atoms: _64  and  _65
REMARK   26  A    between atoms: _68  and  _70
REMARK   27  A    between atoms: _70  and  _71
REMARK   28  A    between atoms: _70  and  _73
REMARK   29  A    between atoms: _73  and  _74
REMARK   30  A    between atoms: _84  and  _86
REMARK   31  A    between atoms: _86  and  _87
REMARK   32  A    between atoms: _86  and  _89
REMARK   33  A    between atoms: _89  and  _90
REMARK   34  A    between atoms: _93  and  _95
REMARK   35  A    between atoms: _95  and  _96
REMARK   36  A    between atoms: _95  and  _98
REMARK   37  A    between atoms: _98  and  _99
REMARK   38  A    between atoms: _102  and  _104
REMARK   39  A    between atoms: _104  and  _105
REMARK   40  A    between atoms: _104  and  _107
REMARK   41  A    between atoms: _107  and  _108
REMARK   42  A    between atoms: _112  and  _113
REMARK   43  A    between atoms: _118  and  _120
REMARK   44  A    between atoms: _120  and  _121
REMARK   45  A    between atoms: _120  and  _123
REMARK   46  A    between atoms: _123  and  _124
REMARK   47  A    between atoms: _127  and  _129
REMARK   48  A    between atoms: _129  and  _130
REMARK   49  A    between atoms: _133  and  _135
REMARK   50  A    between atoms: _135  and  _136
REMARK   51  A    between atoms: _135  and  _138
REMARK   52  A    between atoms: _138  and  _139
REMARK   53  A    between atoms: _142  and  _144
REMARK   54  A    between atoms: _144  and  _145
REMARK   55  A    between atoms: _144  and  _147
REMARK   56  A    between atoms: _147  and  _148
REMARK   57  A    between atoms: _151  and  _153
REMARK   58  A    between atoms: _153  and  _154
REMARK   59  A    between atoms: _153  and  _156
REMARK   60  A    between atoms: _156  and  _157
REMARK   61  A    between atoms: _162  and  _164
REMARK   62  A    between atoms: _164  and  _165
REMARK   63  A    between atoms: _168  and  _170
REMARK   64  A    between atoms: _170  and  _171
REMARK   65  A    between atoms: _170  and  _173
REMARK   66  A    between atoms: _173  and  _174
REMARK   67  A    between atoms: _184  and  _186
REMARK   68  A    between atoms: _186  and  _187
REMARK   69  A    between atoms: _186  and  _189
REMARK   70  A    between atoms: _189  and  _190
REMARK   71  A    between atoms: _192  and  _194
REMARK   72  A    between atoms: _194  and  _195
REMARK   73  A    between atoms: _194  and  _197
REMARK   74  A    between atoms: _197  and  _198
REMARK   75  A    between atoms: _201  and  _203
REMARK   76  A    between atoms: _203  and  _204
REMARK   77  A    between atoms: _203  and  _206
REMARK   78  A    between atoms: _208  and  _210
REMARK   79  A    between atoms: _210  and  _211
REMARK   80  A    between atoms: _210  and  _213
REMARK   81  A    between atoms: _213  and  _214
REMARK   82  A    between atoms: _221  and  _222
REMARK   83  A    between atoms: _227  and  _229
REMARK   84  A    between atoms: _229  and  _230
REMARK   85  A    between atoms: _229  and  _232
REMARK   86  A    between atoms: _232  and  _233
REMARK   87  A    between atoms: _243  and  _245
REMARK   88  A    between atoms: _245  and  _246
REMARK   89  A    between atoms: _245  and  _248
REMARK   90  A    between atoms: _251  and  _253
REMARK   91  A    between atoms: _253  and  _254
REMARK   92  A    between atoms: _253  and  _256
REMARK   93  A    between atoms: _256  and  _257
REMARK   94  A    between atoms: _267  and  _269
REMARK   95  A    between atoms: _269  and  _270
REMARK   96  A    between atoms: _272  and  _274
REMARK   97  A    between atoms: _274  and  _275
REMARK   98  A    between atoms: _274  and  _277
REMARK   99  A    between atoms: _277  and  _278
REMARK  100  A    between atoms: _278  and  _279
REMARK  101  A    between atoms: _282  and  _284
REMARK  102  A    between atoms: _284  and  _285
REMARK  103  A    between atoms: _287  and  _289
REMARK  104  A    between atoms: _289  and  _290
REMARK  105  A    between atoms: _293  and  _295
REMARK  106  A    between atoms: _295  and  _296
REMARK  107  A    between atoms: _295  and  _298
REMARK  108  A    between atoms: _298  and  _299
REMARK  109  A    between atoms: _302  and  _304
REMARK  110  A    between atoms: _304  and  _305
REMARK  111  A    between atoms: _304  and  _307
REMARK  112  A    between atoms: _307  and  _308
REMARK  113  A    between atoms: _314  and  _316
REMARK  114  A    between atoms: _316  and  _317
REMARK  115  A    between atoms: _316  and  _319
REMARK  116  A    between atoms: _319  and  _320
REMARK  117  A    between atoms: _325  and  _326
REMARK  118  A    between atoms: _328  and  _330
REMARK  119  A    between atoms: _330  and  _331
REMARK  120  A    between atoms: _330  and  _333
REMARK  121  A    between atoms: _333  and  _334
REMARK  122  A    between atoms: _339  and  _341
REMARK  123  A    between atoms: _341  and  _342
REMARK  124  A    between atoms: _341  and  _344
REMARK  125  A    between atoms: _344  and  _345
REMARK  126  A    between atoms: _351  and  _353
REMARK  127  A    between atoms: _353  and  _354
REMARK  128  A    between atoms: _353  and  _356
REMARK  129  A    between atoms: _356  and  _357
REMARK  130  A    between atoms: _362  and  _364
REMARK  131  A    between atoms: _364  and  _365
REMARK  132  A    between atoms: _364  and  _367
REMARK  133  A    between atoms: _367  and  _368
REMARK  134  A    between atoms: _368  and  _369
REMARK  135  A    between atoms: _374  and  _376
REMARK  136  A    between atoms: _376  and  _377
REMARK  137  A    between atoms: _376  and  _379
REMARK  138  A    between atoms: _379  and  _380
REMARK  139  A    between atoms: _380  and  _381
REMARK  140  A    between atoms: _384  and  _386
REMARK  141  A    between atoms: _386  and  _387
REMARK  142  A    between atoms: _386  and  _389
REMARK  143  A    between atoms: _389  and  _390
REMARK  144  A    between atoms: _390  and  _391
REMARK  145  A    between atoms: _393  and  _395
REMARK  146  A    between atoms: _395  and  _396
REMARK  147  A    between atoms: _395  and  _398
REMARK  148  A    between atoms: _398  and  _399
REMARK  149  A    between atoms: _399  and  _400
REMARK  150  A    between atoms: _405  and  _407
REMARK  151  A    between atoms: _407  and  _408
REMARK  152  A    between atoms: _407  and  _410
REMARK  153  A    between atoms: _410  and  _411
REMARK  154  A    between atoms: _414  and  _416
REMARK  155  A    between atoms: _416  and  _417
REMARK  156  A    between atoms: _416  and  _419
REMARK  157  A    between atoms: _422  and  _424
REMARK  158  A    between atoms: _424  and  _425
REMARK  159  A    between atoms: _424  and  _427
REMARK  160  A    between atoms: _427  and  _428
REMARK  161  A    between atoms: _428  and  _429
REMARK  162  A    between atoms: _429  and  _430
REMARK  163  A    between atoms: _439  and  _441
REMARK  164  A    between atoms: _441  and  _442
REMARK  165  A    between atoms: _441  and  _444
REMARK  166  A    between atoms: _444  and  _445
REMARK  167  A    between atoms: _449  and  _450
REMARK                            x       y       z     vdW  Elec       q    Type
REMARK                         _______ _______ _______ _____ _____    ______ ____
ROOT
ATOM      1  O   HOH     1      37.739   2.084  90.951  0.00  0.00    +0.000 OA
ENDROOT
TORSDOF 0
REMARK  Name = ../refined-set-2016/3jup/3jup_pocket.pdb
REMARK  167 active torsions:
REMARK  status: ('A' for Active; 'I' for Inactive)
REMARK    1  A    between atoms: _1  and  _3
REMARK    2  A    between atoms: _3  and  _4
REMARK    3  A    between atoms: _3  and  _6
REMARK    4  A    between atoms: _6  and  _7
REMARK    5  A    between atoms: _12  and  _13
REMARK    6  A    between atoms: _15  and  _17
REMARK    7  A    between atoms: _17  and  _18
REMARK    8  A    between atoms: _17  and  _20
REMARK    9  A    between atoms: _20  and  _21
REMARK   10  A    between atoms: _21  and  _22
REMARK   11  A    between atoms: _22  and  _23
REMARK   12  A    between atoms: _32  and  _34
REMARK   13  A    between atoms: _34  and  _35
REMARK   14  A    between atoms: _34  and  _37
REMARK   15  A    between atoms: _37  and  _38
REMARK   16  A    between atoms: _38  and  _39
REMARK   17  A    between atoms: _39  and  _40
REMARK   18  A    between atoms: _49  and  _51
REMARK   19  A    between atoms: _51  and  _52
REMARK   20  A    between atoms: _54  and  _56
REMARK   21  A    between atoms: _56  and  _57
REMARK   22  A    between atoms: _59  and  _61
REMARK   23  A    between atoms: _61  and  _62
REMARK   24  A    between atoms: _61  and  _64
REMARK   25  A    between atoms: _64  and  _65
REMARK   26  A    between atoms: _68  and  _70
REMARK   27  A    between atoms: _70  and  _71
REMARK   28  A    between atoms: _70  and  _73
REMARK   29  A    between atoms: _73  and  _74
REMARK   30  A    between atoms: _84  and  _86
REMARK   31  A    between atoms: _86  and  _87
REMARK   32  A    between atoms: _86  and  _89
REMARK   33  A    between atoms: _89  and  _90
REMARK   34  A    between atoms: _93  and  _95
REMARK   35  A    between atoms: _95  and  _96
REMARK   36  A    between atoms: _95  and  _98
REMARK   37  A    between atoms: _98  and  _99
REMARK   38  A    between atoms: _102  and  _104
REMARK   39  A    between atoms: _104  and  _105
REMARK   40  A    between atoms: _104  and  _107
REMARK   41  A    between atoms: _107  and  _108
REMARK   42  A    between atoms: _112  and  _113
REMARK   43  A    between atoms: _118  and  _120
REMARK   44  A    between atoms: _120  and  _121
REMARK   45  A    between atoms: _120  and  _123
REMARK   46  A    between atoms: _123  and  _124
REMARK   47  A    between atoms: _127  and  _129
REMARK   48  A    between atoms: _129  and  _130
REMARK   49  A    between atoms: _133  and  _135
REMARK   50  A    between atoms: _135  and  _136
REMARK   51  A    between atoms: _135  and  _138
REMARK   52  A    between atoms: _138  and  _139
REMARK   53  A    between atoms: _142  and  _144
REMARK   54  A    between atoms: _144  and  _145
REMARK   55  A    between atoms: _144  and  _147
REMARK   56  A    between atoms: _147  and  _148
REMARK   57  A    between atoms: _151  and  _153
REMARK   58  A    between atoms: _153  and  _154
REMARK   59  A    between atoms: _153  and  _156
REMARK   60  A    between atoms: _156  and  _157
REMARK   61  A    between atoms: _162  and  _164
REMARK   62  A    between atoms: _164  and  _165
REMARK   63  A    between atoms: _168  and  _170
REMARK   64  A    between atoms: _170  and  _171
REMARK   65  A    between atoms: _170  and  _173
REMARK   66  A    between atoms: _173  and  _174
REMARK   67  A    between atoms: _184  and  _186
REMARK   68  A    between atoms: _186  and  _187
REMARK   69  A    between atoms: _186  and  _189
REMARK   70  A    between atoms: _189  and  _190
REMARK   71  A    between atoms: _192  and  _194
REMARK   72  A    between atoms: _194  and  _195
REMARK   73  A    between atoms: _194  and  _197
REMARK   74  A    between atoms: _197  and  _198
REMARK   75  A    between atoms: _201  and  _203
REMARK   76  A    between atoms: _203  and  _204
REMARK   77  A    between atoms: _203  and  _206
REMARK   78  A    between atoms: _208  and  _210
REMARK   79  A    between atoms: _210  and  _211
REMARK   80  A    between atoms: _210  and  _213
REMARK   81  A    between atoms: _213  and  _214
REMARK   82  A    between atoms: _221  and  _222
REMARK   83  A    between atoms: _227  and  _229
REMARK   84  A    between atoms: _229  and  _230
REMARK   85  A    between atoms: _229  and  _232
REMARK   86  A    between atoms: _232  and  _233
REMARK   87  A    between atoms: _243  and  _245
REMARK   88  A    between atoms: _245  and  _246
REMARK   89  A    between atoms: _245  and  _248
REMARK   90  A    between atoms: _251  and  _253
REMARK   91  A    between atoms: _253  and  _254
REMARK   92  A    between atoms: _253  and  _256
REMARK   93  A    between atoms: _256  and  _257
REMARK   94  A    between atoms: _267  and  _269
REMARK   95  A    between atoms: _269  and  _270
REMARK   96  A    between atoms: _272  and  _274
REMARK   97  A    between atoms: _274  and  _275
REMARK   98  A    between atoms: _274  and  _277
REMARK   99  A    between atoms: _277  and  _278
REMARK  100  A    between atoms: _278  and  _279
REMARK  101  A    between atoms: _282  and  _284
REMARK  102  A    between atoms: _284  and  _285
REMARK  103  A    between atoms: _287  and  _289
REMARK  104  A    between atoms: _289  and  _290
REMARK  105  A    between atoms: _293  and  _295
REMARK  106  A    between atoms: _295  and  _296
REMARK  107  A    between atoms: _295  and  _298
REMARK  108  A    between atoms: _298  and  _299
REMARK  109  A    between atoms: _302  and  _304
REMARK  110  A    between atoms: _304  and  _305
REMARK  111  A    between atoms: _304  and  _307
REMARK  112  A    between atoms: _307  and  _308
REMARK  113  A    between atoms: _314  and  _316
REMARK  114  A    between atoms: _316  and  _317
REMARK  115  A    between atoms: _316  and  _319
REMARK  116  A    between atoms: _319  and  _320
REMARK  117  A    between atoms: _325  and  _326
REMARK  118  A    between atoms: _328  and  _330
REMARK  119  A    between atoms: _330  and  _331
REMARK  120  A    between atoms: _330  and  _333
REMARK  121  A    between atoms: _333  and  _334
REMARK  122  A    between atoms: _339  and  _341
REMARK  123  A    between atoms: _341  and  _342
REMARK  124  A    between atoms: _341  and  _344
REMARK  125  A    between atoms: _344  and  _345
REMARK  126  A    between atoms: _351  and  _353
REMARK  127  A    between atoms: _353  and  _354
REMARK  128  A    between atoms: _353  and  _356
REMARK  129  A    between atoms: _356  and  _357
REMARK  130  A    between atoms: _362  and  _364
REMARK  131  A    between atoms: _364  and  _365
REMARK  132  A    between atoms: _364  and  _367
REMARK  133  A    between atoms: _367  and  _368
REMARK  134  A    between atoms: _368  and  _369
REMARK  135  A    between atoms: _374  and  _376
REMARK  136  A    between atoms: _376  and  _377
REMARK  137  A    between atoms: _376  and  _379
REMARK  138  A    between atoms: _379  and  _380
REMARK  139  A    between atoms: _380  and  _381
REMARK  140  A    between atoms: _384  and  _386
REMARK  141  A    between atoms: _386  and  _387
REMARK  142  A    between atoms: _386  and  _389
REMARK  143  A    between atoms: _389  and  _390
REMARK  144  A    between atoms: _390  and  _391
REMARK  145  A    between atoms: _393  and  _395
REMARK  146  A    between atoms: _395  and  _396
REMARK  147  A    between atoms: _395  and  _398
REMARK  148  A    between atoms: _398  and  _399
REMARK  149  A    between atoms: _399  and  _400
REMARK  150  A    between atoms: _405  and  _407
REMARK  151  A    between atoms: _407  and  _408
REMARK  152  A    between atoms: _407  and  _410
REMARK  153  A    between atoms: _410  and  _411
REMARK  154  A    between atoms: _414  and  _416
REMARK  155  A    between atoms: _416  and  _417
REMARK  156  A    between atoms: _416  and  _419
REMARK  157  A    between atoms: _422  and  _424
REMARK  158  A    between atoms: _424  and  _425
REMARK  159  A    between atoms: _424  and  _427
REMARK  160  A    between atoms: _427  and  _428
REMARK  161  A    between atoms: _428  and  _429
REMARK  162  A    between atoms: _429  and  _430
REMARK  163  A    between atoms: _439  and  _441
REMARK  164  A    between atoms: _441  and  _442
REMARK  165  A    between atoms: _441  and  _444
REMARK  166  A    between atoms: _444  and  _445
REMARK  167  A    between atoms: _449  and  _450
REMARK                            x       y       z     vdW  Elec       q    Type
REMARK                         _______ _______ _______ _____ _____    ______ ____
ROOT
ATOM      1  O   HOH     1      38.298  -6.969  95.598  0.00  0.00    +0.000 OA
ENDROOT
TORSDOF 0
REMARK  Name = ../refined-set-2016/3jup/3jup_pocket.pdb
REMARK  167 active torsions:
REMARK  status: ('A' for Active; 'I' for Inactive)
REMARK    1  A    between atoms: _1  and  _3
REMARK    2  A    between atoms: _3  and  _4
REMARK    3  A    between atoms: _3  and  _6
REMARK    4  A    between atoms: _6  and  _7
REMARK    5  A    between atoms: _12  and  _13
REMARK    6  A    between atoms: _15  and  _17
REMARK    7  A    between atoms: _17  and  _18
REMARK    8  A    between atoms: _17  and  _20
REMARK    9  A    between atoms: _20  and  _21
REMARK   10  A    between atoms: _21  and  _22
REMARK   11  A    between atoms: _22  and  _23
REMARK   12  A    between atoms: _32  and  _34
REMARK   13  A    between atoms: _34  and  _35
REMARK   14  A    between atoms: _34  and  _37
REMARK   15  A    between atoms: _37  and  _38
REMARK   16  A    between atoms: _38  and  _39
REMARK   17  A    between atoms: _39  and  _40
REMARK   18  A    between atoms: _49  and  _51
REMARK   19  A    between atoms: _51  and  _52
REMARK   20  A    between atoms: _54  and  _56
REMARK   21  A    between atoms: _56  and  _57
REMARK   22  A    between atoms: _59  and  _61
REMARK   23  A    between atoms: _61  and  _62
REMARK   24  A    between atoms: _61  and  _64
REMARK   25  A    between atoms: _64  and  _65
REMARK   26  A    between atoms: _68  and  _70
REMARK   27  A    between atoms: _70  and  _71
REMARK   28  A    between atoms: _70  and  _73
REMARK   29  A    between atoms: _73  and  _74
REMARK   30  A    between atoms: _84  and  _86
REMARK   31  A    between atoms: _86  and  _87
REMARK   32  A    between atoms: _86  and  _89
REMARK   33  A    between atoms: _89  and  _90
REMARK   34  A    between atoms: _93  and  _95
REMARK   35  A    between atoms: _95  and  _96
REMARK   36  A    between atoms: _95  and  _98
REMARK   37  A    between atoms: _98  and  _99
REMARK   38  A    between atoms: _102  and  _104
REMARK   39  A    between atoms: _104  and  _105
REMARK   40  A    between atoms: _104  and  _107
REMARK   41  A    between atoms: _107  and  _108
REMARK   42  A    between atoms: _112  and  _113
REMARK   43  A    between atoms: _118  and  _120
REMARK   44  A    between atoms: _120  and  _121
REMARK   45  A    between atoms: _120  and  _123
REMARK   46  A    between atoms: _123  and  _124
REMARK   47  A    between atoms: _127  and  _129
REMARK   48  A    between atoms: _129  and  _130
REMARK   49  A    between atoms: _133  and  _135
REMARK   50  A    between atoms: _135  and  _136
REMARK   51  A    between atoms: _135  and  _138
REMARK   52  A    between atoms: _138  and  _139
REMARK   53  A    between atoms: _142  and  _144
REMARK   54  A    between atoms: _144  and  _145
REMARK   55  A    between atoms: _144  and  _147
REMARK   56  A    between atoms: _147  and  _148
REMARK   57  A    between atoms: _151  and  _153
REMARK   58  A    between atoms: _153  and  _154
REMARK   59  A    between atoms: _153  and  _156
REMARK   60  A    between atoms: _156  and  _157
REMARK   61  A    between atoms: _162  and  _164
REMARK   62  A    between atoms: _164  and  _165
REMARK   63  A    between atoms: _168  and  _170
REMARK   64  A    between atoms: _170  and  _171
REMARK   65  A    between atoms: _170  and  _173
REMARK   66  A    between atoms: _173  and  _174
REMARK   67  A    between atoms: _184  and  _186
REMARK   68  A    between atoms: _186  and  _187
REMARK   69  A    between atoms: _186  and  _189
REMARK   70  A    between atoms: _189  and  _190
REMARK   71  A    between atoms: _192  and  _194
REMARK   72  A    between atoms: _194  and  _195
REMARK   73  A    between atoms: _194  and  _197
REMARK   74  A    between atoms: _197  and  _198
REMARK   75  A    between atoms: _201  and  _203
REMARK   76  A    between atoms: _203  and  _204
REMARK   77  A    between atoms: _203  and  _206
REMARK   78  A    between atoms: _208  and  _210
REMARK   79  A    between atoms: _210  and  _211
REMARK   80  A    between atoms: _210  and  _213
REMARK   81  A    between atoms: _213  and  _214
REMARK   82  A    between atoms: _221  and  _222
REMARK   83  A    between atoms: _227  and  _229
REMARK   84  A    between atoms: _229  and  _230
REMARK   85  A    between atoms: _229  and  _232
REMARK   86  A    between atoms: _232  and  _233
REMARK   87  A    between atoms: _243  and  _245
REMARK   88  A    between atoms: _245  and  _246
REMARK   89  A    between atoms: _245  and  _248
REMARK   90  A    between atoms: _251  and  _253
REMARK   91  A    between atoms: _253  and  _254
REMARK   92  A    between atoms: _253  and  _256
REMARK   93  A    between atoms: _256  and  _257
REMARK   94  A    between atoms: _267  and  _269
REMARK   95  A    between atoms: _269  and  _270
REMARK   96  A    between atoms: _272  and  _274
REMARK   97  A    between atoms: _274  and  _275
REMARK   98  A    between atoms: _274  and  _277
REMARK   99  A    between atoms: _277  and  _278
REMARK  100  A    between atoms: _278  and  _279
REMARK  101  A    between atoms: _282  and  _284
REMARK  102  A    between atoms: _284  and  _285
REMARK  103  A    between atoms: _287  and  _289
REMARK  104  A    between atoms: _289  and  _290
REMARK  105  A    between atoms: _293  and  _295
REMARK  106  A    between atoms: _295  and  _296
REMARK  107  A    between atoms: _295  and  _298
REMARK  108  A    between atoms: _298  and  _299
REMARK  109  A    between atoms: _302  and  _304
REMARK  110  A    between atoms: _304  and  _305
REMARK  111  A    between atoms: _304  and  _307
REMARK  112  A    between atoms: _307  and  _308
REMARK  113  A    between atoms: _314  and  _316
REMARK  114  A    between atoms: _316  and  _317
REMARK  115  A    between atoms: _316  and  _319
REMARK  116  A    between atoms: _319  and  _320
REMARK  117  A    between atoms: _325  and  _326
REMARK  118  A    between atoms: _328  and  _330
REMARK  119  A    between atoms: _330  and  _331
REMARK  120  A    between atoms: _330  and  _333
REMARK  121  A    between atoms: _333  and  _334
REMARK  122  A    between atoms: _339  and  _341
REMARK  123  A    between atoms: _341  and  _342
REMARK  124  A    between atoms: _341  and  _344
REMARK  125  A    between atoms: _344  and  _345
REMARK  126  A    between atoms: _351  and  _353
REMARK  127  A    between atoms: _353  and  _354
REMARK  128  A    between atoms: _353  and  _356
REMARK  129  A    between atoms: _356  and  _357
REMARK  130  A    between atoms: _362  and  _364
REMARK  131  A    between atoms: _364  and  _365
REMARK  132  A    between atoms: _364  and  _367
REMARK  133  A    between atoms: _367  and  _368
REMARK  134  A    between atoms: _368  and  _369
REMARK  135  A    between atoms: _374  and  _376
REMARK  136  A    between atoms: _376  and  _377
REMARK  137  A    between atoms: _376  and  _379
REMARK  138  A    between atoms: _379  and  _380
REMARK  139  A    between atoms: _380  and  _381
REMARK  140  A    between atoms: _384  and  _386
REMARK  141  A    between atoms: _386  and  _387
REMARK  142  A    between atoms: _386  and  _389
REMARK  143  A    between atoms: _389  and  _390
REMARK  144  A    between atoms: _390  and  _391
REMARK  145  A    between atoms: _393  and  _395
REMARK  146  A    between atoms: _395  and  _396
REMARK  147  A    between atoms: _395  and  _398
REMARK  148  A    between atoms: _398  and  _399
REMARK  149  A    between atoms: _399  and  _400
REMARK  150  A    between atoms: _405  and  _407
REMARK  151  A    between atoms: _407  and  _408
REMARK  152  A    between atoms: _407  and  _410
REMARK  153  A    between atoms: _410  and  _411
REMARK  154  A    between atoms: _414  and  _416
REMARK  155  A    between atoms: _416  and  _417
REMARK  156  A    between atoms: _416  and  _419
REMARK  157  A    between atoms: _422  and  _424
REMARK  158  A    between atoms: _424  and  _425
REMARK  159  A    between atoms: _424  and  _427
REMARK  160  A    between atoms: _427  and  _428
REMARK  161  A    between atoms: _428  and  _429
REMARK  162  A    between atoms: _429  and  _430
REMARK  163  A    between atoms: _439  and  _441
REMARK  164  A    between atoms: _441  and  _442
REMARK  165  A    between atoms: _441  and  _444
REMARK  166  A    between atoms: _444  and  _445
REMARK  167  A    between atoms: _449  and  _450
REMARK                            x       y       z     vdW  Elec       q    Type
REMARK                         _______ _______ _______ _____ _____    ______ ____
ROOT
ATOM      1  O   HOH     1      35.497   9.019  94.584  0.00  0.00    +0.000 OA
ENDROOT
TORSDOF 0
REMARK  Name = ../refined-set-2016/3jup/3jup_pocket.pdb
REMARK  167 active torsions:
REMARK  status: ('A' for Active; 'I' for Inactive)
REMARK    1  A    between atoms: _1  and  _3
REMARK    2  A    between atoms: _3  and  _4
REMARK    3  A    between atoms: _3  and  _6
REMARK    4  A    between atoms: _6  and  _7
REMARK    5  A    between atoms: _12  and  _13
REMARK    6  A    between atoms: _15  and  _17
REMARK    7  A    between atoms: _17  and  _18
REMARK    8  A    between atoms: _17  and  _20
REMARK    9  A    between atoms: _20  and  _21
REMARK   10  A    between atoms: _21  and  _22
REMARK   11  A    between atoms: _22  and  _23
REMARK   12  A    between atoms: _32  and  _34
REMARK   13  A    between atoms: _34  and  _35
REMARK   14  A    between atoms: _34  and  _37
REMARK   15  A    between atoms: _37  and  _38
REMARK   16  A    between atoms: _38  and  _39
REMARK   17  A    between atoms: _39  and  _40
REMARK   18  A    between atoms: _49  and  _51
REMARK   19  A    between atoms: _51  and  _52
REMARK   20  A    between atoms: _54  and  _56
REMARK   21  A    between atoms: _56  and  _57
REMARK   22  A    between atoms: _59  and  _61
REMARK   23  A    between atoms: _61  and  _62
REMARK   24  A    between atoms: _61  and  _64
REMARK   25  A    between atoms: _64  and  _65
REMARK   26  A    between atoms: _68  and  _70
REMARK   27  A    between atoms: _70  and  _71
REMARK   28  A    between atoms: _70  and  _73
REMARK   29  A    between atoms: _73  and  _74
REMARK   30  A    between atoms: _84  and  _86
REMARK   31  A    between atoms: _86  and  _87
REMARK   32  A    between atoms: _86  and  _89
REMARK   33  A    between atoms: _89  and  _90
REMARK   34  A    between atoms: _93  and  _95
REMARK   35  A    between atoms: _95  and  _96
REMARK   36  A    between atoms: _95  and  _98
REMARK   37  A    between atoms: _98  and  _99
REMARK   38  A    between atoms: _102  and  _104
REMARK   39  A    between atoms: _104  and  _105
REMARK   40  A    between atoms: _104  and  _107
REMARK   41  A    between atoms: _107  and  _108
REMARK   42  A    between atoms: _112  and  _113
REMARK   43  A    between atoms: _118  and  _120
REMARK   44  A    between atoms: _120  and  _121
REMARK   45  A    between atoms: _120  and  _123
REMARK   46  A    between atoms: _123  and  _124
REMARK   47  A    between atoms: _127  and  _129
REMARK   48  A    between atoms: _129  and  _130
REMARK   49  A    between atoms: _133  and  _135
REMARK   50  A    between atoms: _135  and  _136
REMARK   51  A    between atoms: _135  and  _138
REMARK   52  A    between atoms: _138  and  _139
REMARK   53  A    between atoms: _142  and  _144
REMARK   54  A    between atoms: _144  and  _145
REMARK   55  A    between atoms: _144  and  _147
REMARK   56  A    between atoms: _147  and  _148
REMARK   57  A    between atoms: _151  and  _153
REMARK   58  A    between atoms: _153  and  _154
REMARK   59  A    between atoms: _153  and  _156
REMARK   60  A    between atoms: _156  and  _157
REMARK   61  A    between atoms: _162  and  _164
REMARK   62  A    between atoms: _164  and  _165
REMARK   63  A    between atoms: _168  and  _170
REMARK   64  A    between atoms: _170  and  _171
REMARK   65  A    between atoms: _170  and  _173
REMARK   66  A    between atoms: _173  and  _174
REMARK   67  A    between atoms: _184  and  _186
REMARK   68  A    between atoms: _186  and  _187
REMARK   69  A    between atoms: _186  and  _189
REMARK   70  A    between atoms: _189  and  _190
REMARK   71  A    between atoms: _192  and  _194
REMARK   72  A    between atoms: _194  and  _195
REMARK   73  A    between atoms: _194  and  _197
REMARK   74  A    between atoms: _197  and  _198
REMARK   75  A    between atoms: _201  and  _203
REMARK   76  A    between atoms: _203  and  _204
REMARK   77  A    between atoms: _203  and  _206
REMARK   78  A    between atoms: _208  and  _210
REMARK   79  A    between atoms: _210  and  _211
REMARK   80  A    between atoms: _210  and  _213
REMARK   81  A    between atoms: _213  and  _214
REMARK   82  A    between atoms: _221  and  _222
REMARK   83  A    between atoms: _227  and  _229
REMARK   84  A    between atoms: _229  and  _230
REMARK   85  A    between atoms: _229  and  _232
REMARK   86  A    between atoms: _232  and  _233
REMARK   87  A    between atoms: _243  and  _245
REMARK   88  A    between atoms: _245  and  _246
REMARK   89  A    between atoms: _245  and  _248
REMARK   90  A    between atoms: _251  and  _253
REMARK   91  A    between atoms: _253  and  _254
REMARK   92  A    between atoms: _253  and  _256
REMARK   93  A    between atoms: _256  and  _257
REMARK   94  A    between atoms: _267  and  _269
REMARK   95  A    between atoms: _269  and  _270
REMARK   96  A    between atoms: _272  and  _274
REMARK   97  A    between atoms: _274  and  _275
REMARK   98  A    between atoms: _274  and  _277
REMARK   99  A    between atoms: _277  and  _278
REMARK  100  A    between atoms: _278  and  _279
REMARK  101  A    between atoms: _282  and  _284
REMARK  102  A    between atoms: _284  and  _285
REMARK  103  A    between atoms: _287  and  _289
REMARK  104  A    between atoms: _289  and  _290
REMARK  105  A    between atoms: _293  and  _295
REMARK  106  A    between atoms: _295  and  _296
REMARK  107  A    between atoms: _295  and  _298
REMARK  108  A    between atoms: _298  and  _299
REMARK  109  A    between atoms: _302  and  _304
REMARK  110  A    between atoms: _304  and  _305
REMARK  111  A    between atoms: _304  and  _307
REMARK  112  A    between atoms: _307  and  _308
REMARK  113  A    between atoms: _314  and  _316
REMARK  114  A    between atoms: _316  and  _317
REMARK  115  A    between atoms: _316  and  _319
REMARK  116  A    between atoms: _319  and  _320
REMARK  117  A    between atoms: _325  and  _326
REMARK  118  A    between atoms: _328  and  _330
REMARK  119  A    between atoms: _330  and  _331
REMARK  120  A    between atoms: _330  and  _333
REMARK  121  A    between atoms: _333  and  _334
REMARK  122  A    between atoms: _339  and  _341
REMARK  123  A    between atoms: _341  and  _342
REMARK  124  A    between atoms: _341  and  _344
REMARK  125  A    between atoms: _344  and  _345
REMARK  126  A    between atoms: _351  and  _353
REMARK  127  A    between atoms: _353  and  _354
REMARK  128  A    between atoms: _353  and  _356
REMARK  129  A    between atoms: _356  and  _357
REMARK  130  A    between atoms: _362  and  _364
REMARK  131  A    between atoms: _364  and  _365
REMARK  132  A    between atoms: _364  and  _367
REMARK  133  A    between atoms: _367  and  _368
REMARK  134  A    between atoms: _368  and  _369
REMARK  135  A    between atoms: _374  and  _376
REMARK  136  A    between atoms: _376  and  _377
REMARK  137  A    between atoms: _376  and  _379
REMARK  138  A    between atoms: _379  and  _380
REMARK  139  A    between atoms: _380  and  _381
REMARK  140  A    between atoms: _384  and  _386
REMARK  141  A    between atoms: _386  and  _387
REMARK  142  A    between atoms: _386  and  _389
REMARK  143  A    between atoms: _389  and  _390
REMARK  144  A    between atoms: _390  and  _391
REMARK  145  A    between atoms: _393  and  _395
REMARK  146  A    between atoms: _395  and  _396
REMARK  147  A    between atoms: _395  and  _398
REMARK  148  A    between atoms: _398  and  _399
REMARK  149  A    between atoms: _399  and  _400
REMARK  150  A    between atoms: _405  and  _407
REMARK  151  A    between atoms: _407  and  _408
REMARK  152  A    between atoms: _407  and  _410
REMARK  153  A    between atoms: _410  and  _411
REMARK  154  A    between atoms: _414  and  _416
REMARK  155  A    between atoms: _416  and  _417
REMARK  156  A    between atoms: _416  and  _419
REMARK  157  A    between atoms: _422  and  _424
REMARK  158  A    between atoms: _424  and  _425
REMARK  159  A    between atoms: _424  and  _427
REMARK  160  A    between atoms: _427  and  _428
REMARK  161  A    between atoms: _428  and  _429
REMARK  162  A    between atoms: _429  and  _430
REMARK  163  A    between atoms: _439  and  _441
REMARK  164  A    between atoms: _441  and  _442
REMARK  165  A    between atoms: _441  and  _444
REMARK  166  A    between atoms: _444  and  _445
REMARK  167  A    between atoms: _449  and  _450
REMARK                            x       y       z     vdW  Elec       q    Type
REMARK                         _______ _______ _______ _____ _____    ______ ____
ROOT
ATOM      1  O   HOH     1      46.274  -3.720  93.166  0.00  0.00    +0.000 OA
ENDROOT
TORSDOF 0
REMARK  Name = ../refined-set-2016/3jup/3jup_pocket.pdb
REMARK  167 active torsions:
REMARK  status: ('A' for Active; 'I' for Inactive)
REMARK    1  A    between atoms: _1  and  _3
REMARK    2  A    between atoms: _3  and  _4
REMARK    3  A    between atoms: _3  and  _6
REMARK    4  A    between atoms: _6  and  _7
REMARK    5  A    between atoms: _12  and  _13
REMARK    6  A    between atoms: _15  and  _17
REMARK    7  A    between atoms: _17  and  _18
REMARK    8  A    between atoms: _17  and  _20
REMARK    9  A    between atoms: _20  and  _21
REMARK   10  A    between atoms: _21  and  _22
REMARK   11  A    between atoms: _22  and  _23
REMARK   12  A    between atoms: _32  and  _34
REMARK   13  A    between atoms: _34  and  _35
REMARK   14  A    between atoms: _34  and  _37
REMARK   15  A    between atoms: _37  and  _38
REMARK   16  A    between atoms: _38  and  _39
REMARK   17  A    between atoms: _39  and  _40
REMARK   18  A    between atoms: _49  and  _51
REMARK   19  A    between atoms: _51  and  _52
REMARK   20  A    between atoms: _54  and  _56
REMARK   21  A    between atoms: _56  and  _57
REMARK   22  A    between atoms: _59  and  _61
REMARK   23  A    between atoms: _61  and  _62
REMARK   24  A    between atoms: _61  and  _64
REMARK   25  A    between atoms: _64  and  _65
REMARK   26  A    between atoms: _68  and  _70
REMARK   27  A    between atoms: _70  and  _71
REMARK   28  A    between atoms: _70  and  _73
REMARK   29  A    between atoms: _73  and  _74
REMARK   30  A    between atoms: _84  and  _86
REMARK   31  A    between atoms: _86  and  _87
REMARK   32  A    between atoms: _86  and  _89
REMARK   33  A    between atoms: _89  and  _90
REMARK   34  A    between atoms: _93  and  _95
REMARK   35  A    between atoms: _95  and  _96
REMARK   36  A    between atoms: _95  and  _98
REMARK   37  A    between atoms: _98  and  _99
REMARK   38  A    between atoms: _102  and  _104
REMARK   39  A    between atoms: _104  and  _105
REMARK   40  A    between atoms: _104  and  _107
REMARK   41  A    between atoms: _107  and  _108
REMARK   42  A    between atoms: _112  and  _113
REMARK   43  A    between atoms: _118  and  _120
REMARK   44  A    between atoms: _120  and  _121
REMARK   45  A    between atoms: _120  and  _123
REMARK   46  A    between atoms: _123  and  _124
REMARK   47  A    between atoms: _127  and  _129
REMARK   48  A    between atoms: _129  and  _130
REMARK   49  A    between atoms: _133  and  _135
REMARK   50  A    between atoms: _135  and  _136
REMARK   51  A    between atoms: _135  and  _138
REMARK   52  A    between atoms: _138  and  _139
REMARK   53  A    between atoms: _142  and  _144
REMARK   54  A    between atoms: _144  and  _145
REMARK   55  A    between atoms: _144  and  _147
REMARK   56  A    between atoms: _147  and  _148
REMARK   57  A    between atoms: _151  and  _153
REMARK   58  A    between atoms: _153  and  _154
REMARK   59  A    between atoms: _153  and  _156
REMARK   60  A    between atoms: _156  and  _157
REMARK   61  A    between atoms: _162  and  _164
REMARK   62  A    between atoms: _164  and  _165
REMARK   63  A    between atoms: _168  and  _170
REMARK   64  A    between atoms: _170  and  _171
REMARK   65  A    between atoms: _170  and  _173
REMARK   66  A    between atoms: _173  and  _174
REMARK   67  A    between atoms: _184  and  _186
REMARK   68  A    between atoms: _186  and  _187
REMARK   69  A    between atoms: _186  and  _189
REMARK   70  A    between atoms: _189  and  _190
REMARK   71  A    between atoms: _192  and  _194
REMARK   72  A    between atoms: _194  and  _195
REMARK   73  A    between atoms: _194  and  _197
REMARK   74  A    between atoms: _197  and  _198
REMARK   75  A    between atoms: _201  and  _203
REMARK   76  A    between atoms: _203  and  _204
REMARK   77  A    between atoms: _203  and  _206
REMARK   78  A    between atoms: _208  and  _210
REMARK   79  A    between atoms: _210  and  _211
REMARK   80  A    between atoms: _210  and  _213
REMARK   81  A    between atoms: _213  and  _214
REMARK   82  A    between atoms: _221  and  _222
REMARK   83  A    between atoms: _227  and  _229
REMARK   84  A    between atoms: _229  and  _230
REMARK   85  A    between atoms: _229  and  _232
REMARK   86  A    between atoms: _232  and  _233
REMARK   87  A    between atoms: _243  and  _245
REMARK   88  A    between atoms: _245  and  _246
REMARK   89  A    between atoms: _245  and  _248
REMARK   90  A    between atoms: _251  and  _253
REMARK   91  A    between atoms: _253  and  _254
REMARK   92  A    between atoms: _253  and  _256
REMARK   93  A    between atoms: _256  and  _257
REMARK   94  A    between atoms: _267  and  _269
REMARK   95  A    between atoms: _269  and  _270
REMARK   96  A    between atoms: _272  and  _274
REMARK   97  A    between atoms: _274  and  _275
REMARK   98  A    between atoms: _274  and  _277
REMARK   99  A    between atoms: _277  and  _278
REMARK  100  A    between atoms: _278  and  _279
REMARK  101  A    between atoms: _282  and  _284
REMARK  102  A    between atoms: _284  and  _285
REMARK  103  A    between atoms: _287  and  _289
REMARK  104  A    between atoms: _289  and  _290
REMARK  105  A    between atoms: _293  and  _295
REMARK  106  A    between atoms: _295  and  _296
REMARK  107  A    between atoms: _295  and  _298
REMARK  108  A    between atoms: _298  and  _299
REMARK  109  A    between atoms: _302  and  _304
REMARK  110  A    between atoms: _304  and  _305
REMARK  111  A    between atoms: _304  and  _307
REMARK  112  A    between atoms: _307  and  _308
REMARK  113  A    between atoms: _314  and  _316
REMARK  114  A    between atoms: _316  and  _317
REMARK  115  A    between atoms: _316  and  _319
REMARK  116  A    between atoms: _319  and  _320
REMARK  117  A    between atoms: _325  and  _326
REMARK  118  A    between atoms: _328  and  _330
REMARK  119  A    between atoms: _330  and  _331
REMARK  120  A    between atoms: _330  and  _333
REMARK  121  A    between atoms: _333  and  _334
REMARK  122  A    between atoms: _339  and  _341
REMARK  123  A    between atoms: _341  and  _342
REMARK  124  A    between atoms: _341  and  _344
REMARK  125  A    between atoms: _344  and  _345
REMARK  126  A    between atoms: _351  and  _353
REMARK  127  A    between atoms: _353  and  _354
REMARK  128  A    between atoms: _353  and  _356
REMARK  129  A    between atoms: _356  and  _357
REMARK  130  A    between atoms: _362  and  _364
REMARK  131  A    between atoms: _364  and  _365
REMARK  132  A    between atoms: _364  and  _367
REMARK  133  A    between atoms: _367  and  _368
REMARK  134  A    between atoms: _368  and  _369
REMARK  135  A    between atoms: _374  and  _376
REMARK  136  A    between atoms: _376  and  _377
REMARK  137  A    between atoms: _376  and  _379
REMARK  138  A    between atoms: _379  and  _380
REMARK  139  A    between atoms: _380  and  _381
REMARK  140  A    between atoms: _384  and  _386
REMARK  141  A    between atoms: _386  and  _387
REMARK  142  A    between atoms: _386  and  _389
REMARK  143  A    between atoms: _389  and  _390
REMARK  144  A    between atoms: _390  and  _391
REMARK  145  A    between atoms: _393  and  _395
REMARK  146  A    between atoms: _395  and  _396
REMARK  147  A    between atoms: _395  and  _398
REMARK  148  A    between atoms: _398  and  _399
REMARK  149  A    between atoms: _399  and  _400
REMARK  150  A    between atoms: _405  and  _407
REMARK  151  A    between atoms: _407  and  _408
REMARK  152  A    between atoms: _407  and  _410
REMARK  153  A    between atoms: _410  and  _411
REMARK  154  A    between atoms: _414  and  _416
REMARK  155  A    between atoms: _416  and  _417
REMARK  156  A    between atoms: _416  and  _419
REMARK  157  A    between atoms: _422  and  _424
REMARK  158  A    between atoms: _424  and  _425
REMARK  159  A    between atoms: _424  and  _427
REMARK  160  A    between atoms: _427  and  _428
REMARK  161  A    between atoms: _428  and  _429
REMARK  162  A    between atoms: _429  and  _430
REMARK  163  A    between atoms: _439  and  _441
REMARK  164  A    between atoms: _441  and  _442
REMARK  165  A    between atoms: _441  and  _444
REMARK  166  A    between atoms: _444  and  _445
REMARK  167  A    between atoms: _449  and  _450
REMARK                            x       y       z     vdW  Elec       q    Type
REMARK                         _______ _______ _______ _____ _____    ______ ____
ROOT
ATOM      1  O   HOH     1      48.568   1.237  88.555  0.00  0.00    +0.000 OA
ENDROOT
TORSDOF 0
REMARK  Name = ../refined-set-2016/3jup/3jup_pocket.pdb
REMARK  167 active torsions:
REMARK  status: ('A' for Active; 'I' for Inactive)
REMARK    1  A    between atoms: _1  and  _3
REMARK    2  A    between atoms: _3  and  _4
REMARK    3  A    between atoms: _3  and  _6
REMARK    4  A    between atoms: _6  and  _7
REMARK    5  A    between atoms: _12  and  _13
REMARK    6  A    between atoms: _15  and  _17
REMARK    7  A    between atoms: _17  and  _18
REMARK    8  A    between atoms: _17  and  _20
REMARK    9  A    between atoms: _20  and  _21
REMARK   10  A    between atoms: _21  and  _22
REMARK   11  A    between atoms: _22  and  _23
REMARK   12  A    between atoms: _32  and  _34
REMARK   13  A    between atoms: _34  and  _35
REMARK   14  A    between atoms: _34  and  _37
REMARK   15  A    between atoms: _37  and  _38
REMARK   16  A    between atoms: _38  and  _39
REMARK   17  A    between atoms: _39  and  _40
REMARK   18  A    between atoms: _49  and  _51
REMARK   19  A    between atoms: _51  and  _52
REMARK   20  A    between atoms: _54  and  _56
REMARK   21  A    between atoms: _56  and  _57
REMARK   22  A    between atoms: _59  and  _61
REMARK   23  A    between atoms: _61  and  _62
REMARK   24  A    between atoms: _61  and  _64
REMARK   25  A    between atoms: _64  and  _65
REMARK   26  A    between atoms: _68  and  _70
REMARK   27  A    between atoms: _70  and  _71
REMARK   28  A    between atoms: _70  and  _73
REMARK   29  A    between atoms: _73  and  _74
REMARK   30  A    between atoms: _84  and  _86
REMARK   31  A    between atoms: _86  and  _87
REMARK   32  A    between atoms: _86  and  _89
REMARK   33  A    between atoms: _89  and  _90
REMARK   34  A    between atoms: _93  and  _95
REMARK   35  A    between atoms: _95  and  _96
REMARK   36  A    between atoms: _95  and  _98
REMARK   37  A    between atoms: _98  and  _99
REMARK   38  A    between atoms: _102  and  _104
REMARK   39  A    between atoms: _104  and  _105
REMARK   40  A    between atoms: _104  and  _107
REMARK   41  A    between atoms: _107  and  _108
REMARK   42  A    between atoms: _112  and  _113
REMARK   43  A    between atoms: _118  and  _120
REMARK   44  A    between atoms: _120  and  _121
REMARK   45  A    between atoms: _120  and  _123
REMARK   46  A    between atoms: _123  and  _124
REMARK   47  A    between atoms: _127  and  _129
REMARK   48  A    between atoms: _129  and  _130
REMARK   49  A    between atoms: _133  and  _135
REMARK   50  A    between atoms: _135  and  _136
REMARK   51  A    between atoms: _135  and  _138
REMARK   52  A    between atoms: _138  and  _139
REMARK   53  A    between atoms: _142  and  _144
REMARK   54  A    between atoms: _144  and  _145
REMARK   55  A    between atoms: _144  and  _147
REMARK   56  A    between atoms: _147  and  _148
REMARK   57  A    between atoms: _151  and  _153
REMARK   58  A    between atoms: _153  and  _154
REMARK   59  A    between atoms: _153  and  _156
REMARK   60  A    between atoms: _156  and  _157
REMARK   61  A    between atoms: _162  and  _164
REMARK   62  A    between atoms: _164  and  _165
REMARK   63  A    between atoms: _168  and  _170
REMARK   64  A    between atoms: _170  and  _171
REMARK   65  A    between atoms: _170  and  _173
REMARK   66  A    between atoms: _173  and  _174
REMARK   67  A    between atoms: _184  and  _186
REMARK   68  A    between atoms: _186  and  _187
REMARK   69  A    between atoms: _186  and  _189
REMARK   70  A    between atoms: _189  and  _190
REMARK   71  A    between atoms: _192  and  _194
REMARK   72  A    between atoms: _194  and  _195
REMARK   73  A    between atoms: _194  and  _197
REMARK   74  A    between atoms: _197  and  _198
REMARK   75  A    between atoms: _201  and  _203
REMARK   76  A    between atoms: _203  and  _204
REMARK   77  A    between atoms: _203  and  _206
REMARK   78  A    between atoms: _208  and  _210
REMARK   79  A    between atoms: _210  and  _211
REMARK   80  A    between atoms: _210  and  _213
REMARK   81  A    between atoms: _213  and  _214
REMARK   82  A    between atoms: _221  and  _222
REMARK   83  A    between atoms: _227  and  _229
REMARK   84  A    between atoms: _229  and  _230
REMARK   85  A    between atoms: _229  and  _232
REMARK   86  A    between atoms: _232  and  _233
REMARK   87  A    between atoms: _243  and  _245
REMARK   88  A    between atoms: _245  and  _246
REMARK   89  A    between atoms: _245  and  _248
REMARK   90  A    between atoms: _251  and  _253
REMARK   91  A    between atoms: _253  and  _254
REMARK   92  A    between atoms: _253  and  _256
REMARK   93  A    between atoms: _256  and  _257
REMARK   94  A    between atoms: _267  and  _269
REMARK   95  A    between atoms: _269  and  _270
REMARK   96  A    between atoms: _272  and  _274
REMARK   97  A    between atoms: _274  and  _275
REMARK   98  A    between atoms: _274  and  _277
REMARK   99  A    between atoms: _277  and  _278
REMARK  100  A    between atoms: _278  and  _279
REMARK  101  A    between atoms: _282  and  _284
REMARK  102  A    between atoms: _284  and  _285
REMARK  103  A    between atoms: _287  and  _289
REMARK  104  A    between atoms: _289  and  _290
REMARK  105  A    between atoms: _293  and  _295
REMARK  106  A    between atoms: _295  and  _296
REMARK  107  A    between atoms: _295  and  _298
REMARK  108  A    between atoms: _298  and  _299
REMARK  109  A    between atoms: _302  and  _304
REMARK  110  A    between atoms: _304  and  _305
REMARK  111  A    between atoms: _304  and  _307
REMARK  112  A    between atoms: _307  and  _308
REMARK  113  A    between atoms: _314  and  _316
REMARK  114  A    between atoms: _316  and  _317
REMARK  115  A    between atoms: _316  and  _319
REMARK  116  A    between atoms: _319  and  _320
REMARK  117  A    between atoms: _325  and  _326
REMARK  118  A    between atoms: _328  and  _330
REMARK  119  A    between atoms: _330  and  _331
REMARK  120  A    between atoms: _330  and  _333
REMARK  121  A    between atoms: _333  and  _334
REMARK  122  A    between atoms: _339  and  _341
REMARK  123  A    between atoms: _341  and  _342
REMARK  124  A    between atoms: _341  and  _344
REMARK  125  A    between atoms: _344  and  _345
REMARK  126  A    between atoms: _351  and  _353
REMARK  127  A    between atoms: _353  and  _354
REMARK  128  A    between atoms: _353  and  _356
REMARK  129  A    between atoms: _356  and  _357
REMARK  130  A    between atoms: _362  and  _364
REMARK  131  A    between atoms: _364  and  _365
REMARK  132  A    between atoms: _364  and  _367
REMARK  133  A    between atoms: _367  and  _368
REMARK  134  A    between atoms: _368  and  _369
REMARK  135  A    between atoms: _374  and  _376
REMARK  136  A    between atoms: _376  and  _377
REMARK  137  A    between atoms: _376  and  _379
REMARK  138  A    between atoms: _379  and  _380
REMARK  139  A    between atoms: _380  and  _381
REMARK  140  A    between atoms: _384  and  _386
REMARK  141  A    between atoms: _386  and  _387
REMARK  142  A    between atoms: _386  and  _389
REMARK  143  A    between atoms: _389  and  _390
REMARK  144  A    between atoms: _390  and  _391
REMARK  145  A    between atoms: _393  and  _395
REMARK  146  A    between atoms: _395  and  _396
REMARK  147  A    between atoms: _395  and  _398
REMARK  148  A    between atoms: _398  and  _399
REMARK  149  A    between atoms: _399  and  _400
REMARK  150  A    between atoms: _405  and  _407
REMARK  151  A    between atoms: _407  and  _408
REMARK  152  A    between atoms: _407  and  _410
REMARK  153  A    between atoms: _410  and  _411
REMARK  154  A    between atoms: _414  and  _416
REMARK  155  A    between atoms: _416  and  _417
REMARK  156  A    between atoms: _416  and  _419
REMARK  157  A    between atoms: _422  and  _424
REMARK  158  A    between atoms: _424  and  _425
REMARK  159  A    between atoms: _424  and  _427
REMARK  160  A    between atoms: _427  and  _428
REMARK  161  A    between atoms: _428  and  _429
REMARK  162  A    between atoms: _429  and  _430
REMARK  163  A    between atoms: _439  and  _441
REMARK  164  A    between atoms: _441  and  _442
REMARK  165  A    between atoms: _441  and  _444
REMARK  166  A    between atoms: _444  and  _445
REMARK  167  A    between atoms: _449  and  _450
REMARK                            x       y       z     vdW  Elec       q    Type
REMARK                         _______ _______ _______ _____ _____    ______ ____
ROOT
ATOM      1  O   HOH     1      44.719  -0.717  88.187  0.00  0.00    +0.000 OA
ENDROOT
TORSDOF 0
REMARK  Name = ../refined-set-2016/3jup/3jup_pocket.pdb
REMARK  167 active torsions:
REMARK  status: ('A' for Active; 'I' for Inactive)
REMARK    1  A    between atoms: _1  and  _3
REMARK    2  A    between atoms: _3  and  _4
REMARK    3  A    between atoms: _3  and  _6
REMARK    4  A    between atoms: _6  and  _7
REMARK    5  A    between atoms: _12  and  _13
REMARK    6  A    between atoms: _15  and  _17
REMARK    7  A    between atoms: _17  and  _18
REMARK    8  A    between atoms: _17  and  _20
REMARK    9  A    between atoms: _20  and  _21
REMARK   10  A    between atoms: _21  and  _22
REMARK   11  A    between atoms: _22  and  _23
REMARK   12  A    between atoms: _32  and  _34
REMARK   13  A    between atoms: _34  and  _35
REMARK   14  A    between atoms: _34  and  _37
REMARK   15  A    between atoms: _37  and  _38
REMARK   16  A    between atoms: _38  and  _39
REMARK   17  A    between atoms: _39  and  _40
REMARK   18  A    between atoms: _49  and  _51
REMARK   19  A    between atoms: _51  and  _52
REMARK   20  A    between atoms: _54  and  _56
REMARK   21  A    between atoms: _56  and  _57
REMARK   22  A    between atoms: _59  and  _61
REMARK   23  A    between atoms: _61  and  _62
REMARK   24  A    between atoms: _61  and  _64
REMARK   25  A    between atoms: _64  and  _65
REMARK   26  A    between atoms: _68  and  _70
REMARK   27  A    between atoms: _70  and  _71
REMARK   28  A    between atoms: _70  and  _73
REMARK   29  A    between atoms: _73  and  _74
REMARK   30  A    between atoms: _84  and  _86
REMARK   31  A    between atoms: _86  and  _87
REMARK   32  A    between atoms: _86  and  _89
REMARK   33  A    between atoms: _89  and  _90
REMARK   34  A    between atoms: _93  and  _95
REMARK   35  A    between atoms: _95  and  _96
REMARK   36  A    between atoms: _95  and  _98
REMARK   37  A    between atoms: _98  and  _99
REMARK   38  A    between atoms: _102  and  _104
REMARK   39  A    between atoms: _104  and  _105
REMARK   40  A    between atoms: _104  and  _107
REMARK   41  A    between atoms: _107  and  _108
REMARK   42  A    between atoms: _112  and  _113
REMARK   43  A    between atoms: _118  and  _120
REMARK   44  A    between atoms: _120  and  _121
REMARK   45  A    between atoms: _120  and  _123
REMARK   46  A    between atoms: _123  and  _124
REMARK   47  A    between atoms: _127  and  _129
REMARK   48  A    between atoms: _129  and  _130
REMARK   49  A    between atoms: _133  and  _135
REMARK   50  A    between atoms: _135  and  _136
REMARK   51  A    between atoms: _135  and  _138
REMARK   52  A    between atoms: _138  and  _139
REMARK   53  A    between atoms: _142  and  _144
REMARK   54  A    between atoms: _144  and  _145
REMARK   55  A    between atoms: _144  and  _147
REMARK   56  A    between atoms: _147  and  _148
REMARK   57  A    between atoms: _151  and  _153
REMARK   58  A    between atoms: _153  and  _154
REMARK   59  A    between atoms: _153  and  _156
REMARK   60  A    between atoms: _156  and  _157
REMARK   61  A    between atoms: _162  and  _164
REMARK   62  A    between atoms: _164  and  _165
REMARK   63  A    between atoms: _168  and  _170
REMARK   64  A    between atoms: _170  and  _171
REMARK   65  A    between atoms: _170  and  _173
REMARK   66  A    between atoms: _173  and  _174
REMARK   67  A    between atoms: _184  and  _186
REMARK   68  A    between atoms: _186  and  _187
REMARK   69  A    between atoms: _186  and  _189
REMARK   70  A    between atoms: _189  and  _190
REMARK   71  A    between atoms: _192  and  _194
REMARK   72  A    between atoms: _194  and  _195
REMARK   73  A    between atoms: _194  and  _197
REMARK   74  A    between atoms: _197  and  _198
REMARK   75  A    between atoms: _201  and  _203
REMARK   76  A    between atoms: _203  and  _204
REMARK   77  A    between atoms: _203  and  _206
REMARK   78  A    between atoms: _208  and  _210
REMARK   79  A    between atoms: _210  and  _211
REMARK   80  A    between atoms: _210  and  _213
REMARK   81  A    between atoms: _213  and  _214
REMARK   82  A    between atoms: _221  and  _222
REMARK   83  A    between atoms: _227  and  _229
REMARK   84  A    between atoms: _229  and  _230
REMARK   85  A    between atoms: _229  and  _232
REMARK   86  A    between atoms: _232  and  _233
REMARK   87  A    between atoms: _243  and  _245
REMARK   88  A    between atoms: _245  and  _246
REMARK   89  A    between atoms: _245  and  _248
REMARK   90  A    between atoms: _251  and  _253
REMARK   91  A    between atoms: _253  and  _254
REMARK   92  A    between atoms: _253  and  _256
REMARK   93  A    between atoms: _256  and  _257
REMARK   94  A    between atoms: _267  and  _269
REMARK   95  A    between atoms: _269  and  _270
REMARK   96  A    between atoms: _272  and  _274
REMARK   97  A    between atoms: _274  and  _275
REMARK   98  A    between atoms: _274  and  _277
REMARK   99  A    between atoms: _277  and  _278
REMARK  100  A    between atoms: _278  and  _279
REMARK  101  A    between atoms: _282  and  _284
REMARK  102  A    between atoms: _284  and  _285
REMARK  103  A    between atoms: _287  and  _289
REMARK  104  A    between atoms: _289  and  _290
REMARK  105  A    between atoms: _293  and  _295
REMARK  106  A    between atoms: _295  and  _296
REMARK  107  A    between atoms: _295  and  _298
REMARK  108  A    between atoms: _298  and  _299
REMARK  109  A    between atoms: _302  and  _304
REMARK  110  A    between atoms: _304  and  _305
REMARK  111  A    between atoms: _304  and  _307
REMARK  112  A    between atoms: _307  and  _308
REMARK  113  A    between atoms: _314  and  _316
REMARK  114  A    between atoms: _316  and  _317
REMARK  115  A    between atoms: _316  and  _319
REMARK  116  A    between atoms: _319  and  _320
REMARK  117  A    between atoms: _325  and  _326
REMARK  118  A    between atoms: _328  and  _330
REMARK  119  A    between atoms: _330  and  _331
REMARK  120  A    between atoms: _330  and  _333
REMARK  121  A    between atoms: _333  and  _334
REMARK  122  A    between atoms: _339  and  _341
REMARK  123  A    between atoms: _341  and  _342
REMARK  124  A    between atoms: _341  and  _344
REMARK  125  A    between atoms: _344  and  _345
REMARK  126  A    between atoms: _351  and  _353
REMARK  127  A    between atoms: _353  and  _354
REMARK  128  A    between atoms: _353  and  _356
REMARK  129  A    between atoms: _356  and  _357
REMARK  130  A    between atoms: _362  and  _364
REMARK  131  A    between atoms: _364  and  _365
REMARK  132  A    between atoms: _364  and  _367
REMARK  133  A    between atoms: _367  and  _368
REMARK  134  A    between atoms: _368  and  _369
REMARK  135  A    between atoms: _374  and  _376
REMARK  136  A    between atoms: _376  and  _377
REMARK  137  A    between atoms: _376  and  _379
REMARK  138  A    between atoms: _379  and  _380
REMARK  139  A    between atoms: _380  and  _381
REMARK  140  A    between atoms: _384  and  _386
REMARK  141  A    between atoms: _386  and  _387
REMARK  142  A    between atoms: _386  and  _389
REMARK  143  A    between atoms: _389  and  _390
REMARK  144  A    between atoms: _390  and  _391
REMARK  145  A    between atoms: _393  and  _395
REMARK  146  A    between atoms: _395  and  _396
REMARK  147  A    between atoms: _395  and  _398
REMARK  148  A    between atoms: _398  and  _399
REMARK  149  A    between atoms: _399  and  _400
REMARK  150  A    between atoms: _405  and  _407
REMARK  151  A    between atoms: _407  and  _408
REMARK  152  A    between atoms: _407  and  _410
REMARK  153  A    between atoms: _410  and  _411
REMARK  154  A    between atoms: _414  and  _416
REMARK  155  A    between atoms: _416  and  _417
REMARK  156  A    between atoms: _416  and  _419
REMARK  157  A    between atoms: _422  and  _424
REMARK  158  A    between atoms: _424  and  _425
REMARK  159  A    between atoms: _424  and  _427
REMARK  160  A    between atoms: _427  and  _428
REMARK  161  A    between atoms: _428  and  _429
REMARK  162  A    between atoms: _429  and  _430
REMARK  163  A    between atoms: _439  and  _441
REMARK  164  A    between atoms: _441  and  _442
REMARK  165  A    between atoms: _441  and  _444
REMARK  166  A    between atoms: _444  and  _445
REMARK  167  A    between atoms: _449  and  _450
REMARK                            x       y       z     vdW  Elec       q    Type
REMARK                         _______ _______ _______ _____ _____    ______ ____
ROOT
ATOM      1  O   HOH     1      33.837   6.837  93.791  0.00  0.00    +0.000 OA
ENDROOT
TORSDOF 0
REMARK  Name = ../refined-set-2016/3jup/3jup_pocket.pdb
REMARK  167 active torsions:
REMARK  status: ('A' for Active; 'I' for Inactive)
REMARK    1  A    between atoms: _1  and  _3
REMARK    2  A    between atoms: _3  and  _4
REMARK    3  A    between atoms: _3  and  _6
REMARK    4  A    between atoms: _6  and  _7
REMARK    5  A    between atoms: _12  and  _13
REMARK    6  A    between atoms: _15  and  _17
REMARK    7  A    between atoms: _17  and  _18
REMARK    8  A    between atoms: _17  and  _20
REMARK    9  A    between atoms: _20  and  _21
REMARK   10  A    between atoms: _21  and  _22
REMARK   11  A    between atoms: _22  and  _23
REMARK   12  A    between atoms: _32  and  _34
REMARK   13  A    between atoms: _34  and  _35
REMARK   14  A    between atoms: _34  and  _37
REMARK   15  A    between atoms: _37  and  _38
REMARK   16  A    between atoms: _38  and  _39
REMARK   17  A    between atoms: _39  and  _40
REMARK   18  A    between atoms: _49  and  _51
REMARK   19  A    between atoms: _51  and  _52
REMARK   20  A    between atoms: _54  and  _56
REMARK   21  A    between atoms: _56  and  _57
REMARK   22  A    between atoms: _59  and  _61
REMARK   23  A    between atoms: _61  and  _62
REMARK   24  A    between atoms: _61  and  _64
REMARK   25  A    between atoms: _64  and  _65
REMARK   26  A    between atoms: _68  and  _70
REMARK   27  A    between atoms: _70  and  _71
REMARK   28  A    between atoms: _70  and  _73
REMARK   29  A    between atoms: _73  and  _74
REMARK   30  A    between atoms: _84  and  _86
REMARK   31  A    between atoms: _86  and  _87
REMARK   32  A    between atoms: _86  and  _89
REMARK   33  A    between atoms: _89  and  _90
REMARK   34  A    between atoms: _93  and  _95
REMARK   35  A    between atoms: _95  and  _96
REMARK   36  A    between atoms: _95  and  _98
REMARK   37  A    between atoms: _98  and  _99
REMARK   38  A    between atoms: _102  and  _104
REMARK   39  A    between atoms: _104  and  _105
REMARK   40  A    between atoms: _104  and  _107
REMARK   41  A    between atoms: _107  and  _108
REMARK   42  A    between atoms: _112  and  _113
REMARK   43  A    between atoms: _118  and  _120
REMARK   44  A    between atoms: _120  and  _121
REMARK   45  A    between atoms: _120  and  _123
REMARK   46  A    between atoms: _123  and  _124
REMARK   47  A    between atoms: _127  and  _129
REMARK   48  A    between atoms: _129  and  _130
REMARK   49  A    between atoms: _133  and  _135
REMARK   50  A    between atoms: _135  and  _136
REMARK   51  A    between atoms: _135  and  _138
REMARK   52  A    between atoms: _138  and  _139
REMARK   53  A    between atoms: _142  and  _144
REMARK   54  A    between atoms: _144  and  _145
REMARK   55  A    between atoms: _144  and  _147
REMARK   56  A    between atoms: _147  and  _148
REMARK   57  A    between atoms: _151  and  _153
REMARK   58  A    between atoms: _153  and  _154
REMARK   59  A    between atoms: _153  and  _156
REMARK   60  A    between atoms: _156  and  _157
REMARK   61  A    between atoms: _162  and  _164
REMARK   62  A    between atoms: _164  and  _165
REMARK   63  A    between atoms: _168  and  _170
REMARK   64  A    between atoms: _170  and  _171
REMARK   65  A    between atoms: _170  and  _173
REMARK   66  A    between atoms: _173  and  _174
REMARK   67  A    between atoms: _184  and  _186
REMARK   68  A    between atoms: _186  and  _187
REMARK   69  A    between atoms: _186  and  _189
REMARK   70  A    between atoms: _189  and  _190
REMARK   71  A    between atoms: _192  and  _194
REMARK   72  A    between atoms: _194  and  _195
REMARK   73  A    between atoms: _194  and  _197
REMARK   74  A    between atoms: _197  and  _198
REMARK   75  A    between atoms: _201  and  _203
REMARK   76  A    between atoms: _203  and  _204
REMARK   77  A    between atoms: _203  and  _206
REMARK   78  A    between atoms: _208  and  _210
REMARK   79  A    between atoms: _210  and  _211
REMARK   80  A    between atoms: _210  and  _213
REMARK   81  A    between atoms: _213  and  _214
REMARK   82  A    between atoms: _221  and  _222
REMARK   83  A    between atoms: _227  and  _229
REMARK   84  A    between atoms: _229  and  _230
REMARK   85  A    between atoms: _229  and  _232
REMARK   86  A    between atoms: _232  and  _233
REMARK   87  A    between atoms: _243  and  _245
REMARK   88  A    between atoms: _245  and  _246
REMARK   89  A    between atoms: _245  and  _248
REMARK   90  A    between atoms: _251  and  _253
REMARK   91  A    between atoms: _253  and  _254
REMARK   92  A    between atoms: _253  and  _256
REMARK   93  A    between atoms: _256  and  _257
REMARK   94  A    between atoms: _267  and  _269
REMARK   95  A    between atoms: _269  and  _270
REMARK   96  A    between atoms: _272  and  _274
REMARK   97  A    between atoms: _274  and  _275
REMARK   98  A    between atoms: _274  and  _277
REMARK   99  A    between atoms: _277  and  _278
REMARK  100  A    between atoms: _278  and  _279
REMARK  101  A    between atoms: _282  and  _284
REMARK  102  A    between atoms: _284  and  _285
REMARK  103  A    between atoms: _287  and  _289
REMARK  104  A    between atoms: _289  and  _290
REMARK  105  A    between atoms: _293  and  _295
REMARK  106  A    between atoms: _295  and  _296
REMARK  107  A    between atoms: _295  and  _298
REMARK  108  A    between atoms: _298  and  _299
REMARK  109  A    between atoms: _302  and  _304
REMARK  110  A    between atoms: _304  and  _305
REMARK  111  A    between atoms: _304  and  _307
REMARK  112  A    between atoms: _307  and  _308
REMARK  113  A    between atoms: _314  and  _316
REMARK  114  A    between atoms: _316  and  _317
REMARK  115  A    between atoms: _316  and  _319
REMARK  116  A    between atoms: _319  and  _320
REMARK  117  A    between atoms: _325  and  _326
REMARK  118  A    between atoms: _328  and  _330
REMARK  119  A    between atoms: _330  and  _331
REMARK  120  A    between atoms: _330  and  _333
REMARK  121  A    between atoms: _333  and  _334
REMARK  122  A    between atoms: _339  and  _341
REMARK  123  A    between atoms: _341  and  _342
REMARK  124  A    between atoms: _341  and  _344
REMARK  125  A    between atoms: _344  and  _345
REMARK  126  A    between atoms: _351  and  _353
REMARK  127  A    between atoms: _353  and  _354
REMARK  128  A    between atoms: _353  and  _356
REMARK  129  A    between atoms: _356  and  _357
REMARK  130  A    between atoms: _362  and  _364
REMARK  131  A    between atoms: _364  and  _365
REMARK  132  A    between atoms: _364  and  _367
REMARK  133  A    between atoms: _367  and  _368
REMARK  134  A    between atoms: _368  and  _369
REMARK  135  A    between atoms: _374  and  _376
REMARK  136  A    between atoms: _376  and  _377
REMARK  137  A    between atoms: _376  and  _379
REMARK  138  A    between atoms: _379  and  _380
REMARK  139  A    between atoms: _380  and  _381
REMARK  140  A    between atoms: _384  and  _386
REMARK  141  A    between atoms: _386  and  _387
REMARK  142  A    between atoms: _386  and  _389
REMARK  143  A    between atoms: _389  and  _390
REMARK  144  A    between atoms: _390  and  _391
REMARK  145  A    between atoms: _393  and  _395
REMARK  146  A    between atoms: _395  and  _396
REMARK  147  A    between atoms: _395  and  _398
REMARK  148  A    between atoms: _398  and  _399
REMARK  149  A    between atoms: _399  and  _400
REMARK  150  A    between atoms: _405  and  _407
REMARK  151  A    between atoms: _407  and  _408
REMARK  152  A    between atoms: _407  and  _410
REMARK  153  A    between atoms: _410  and  _411
REMARK  154  A    between atoms: _414  and  _416
REMARK  155  A    between atoms: _416  and  _417
REMARK  156  A    between atoms: _416  and  _419
REMARK  157  A    between atoms: _422  and  _424
REMARK  158  A    between atoms: _424  and  _425
REMARK  159  A    between atoms: _424  and  _427
REMARK  160  A    between atoms: _427  and  _428
REMARK  161  A    between atoms: _428  and  _429
REMARK  162  A    between atoms: _429  and  _430
REMARK  163  A    between atoms: _439  and  _441
REMARK  164  A    between atoms: _441  and  _442
REMARK  165  A    between atoms: _441  and  _444
REMARK  166  A    between atoms: _444  and  _445
REMARK  167  A    between atoms: _449  and  _450
REMARK                            x       y       z     vdW  Elec       q    Type
REMARK                         _______ _______ _______ _____ _____    ______ ____
ROOT
ATOM      1  O   HOH     1      43.119  11.140  98.081  0.00  0.00    +0.000 OA
ENDROOT
TORSDOF 0
REMARK  Name = ../refined-set-2016/3jup/3jup_pocket.pdb
REMARK  167 active torsions:
REMARK  status: ('A' for Active; 'I' for Inactive)
REMARK    1  A    between atoms: _1  and  _3
REMARK    2  A    between atoms: _3  and  _4
REMARK    3  A    between atoms: _3  and  _6
REMARK    4  A    between atoms: _6  and  _7
REMARK    5  A    between atoms: _12  and  _13
REMARK    6  A    between atoms: _15  and  _17
REMARK    7  A    between atoms: _17  and  _18
REMARK    8  A    between atoms: _17  and  _20
REMARK    9  A    between atoms: _20  and  _21
REMARK   10  A    between atoms: _21  and  _22
REMARK   11  A    between atoms: _22  and  _23
REMARK   12  A    between atoms: _32  and  _34
REMARK   13  A    between atoms: _34  and  _35
REMARK   14  A    between atoms: _34  and  _37
REMARK   15  A    between atoms: _37  and  _38
REMARK   16  A    between atoms: _38  and  _39
REMARK   17  A    between atoms: _39  and  _40
REMARK   18  A    between atoms: _49  and  _51
REMARK   19  A    between atoms: _51  and  _52
REMARK   20  A    between atoms: _54  and  _56
REMARK   21  A    between atoms: _56  and  _57
REMARK   22  A    between atoms: _59  and  _61
REMARK   23  A    between atoms: _61  and  _62
REMARK   24  A    between atoms: _61  and  _64
REMARK   25  A    between atoms: _64  and  _65
REMARK   26  A    between atoms: _68  and  _70
REMARK   27  A    between atoms: _70  and  _71
REMARK   28  A    between atoms: _70  and  _73
REMARK   29  A    between atoms: _73  and  _74
REMARK   30  A    between atoms: _84  and  _86
REMARK   31  A    between atoms: _86  and  _87
REMARK   32  A    between atoms: _86  and  _89
REMARK   33  A    between atoms: _89  and  _90
REMARK   34  A    between atoms: _93  and  _95
REMARK   35  A    between atoms: _95  and  _96
REMARK   36  A    between atoms: _95  and  _98
REMARK   37  A    between atoms: _98  and  _99
REMARK   38  A    between atoms: _102  and  _104
REMARK   39  A    between atoms: _104  and  _105
REMARK   40  A    between atoms: _104  and  _107
REMARK   41  A    between atoms: _107  and  _108
REMARK   42  A    between atoms: _112  and  _113
REMARK   43  A    between atoms: _118  and  _120
REMARK   44  A    between atoms: _120  and  _121
REMARK   45  A    between atoms: _120  and  _123
REMARK   46  A    between atoms: _123  and  _124
REMARK   47  A    between atoms: _127  and  _129
REMARK   48  A    between atoms: _129  and  _130
REMARK   49  A    between atoms: _133  and  _135
REMARK   50  A    between atoms: _135  and  _136
REMARK   51  A    between atoms: _135  and  _138
REMARK   52  A    between atoms: _138  and  _139
REMARK   53  A    between atoms: _142  and  _144
REMARK   54  A    between atoms: _144  and  _145
REMARK   55  A    between atoms: _144  and  _147
REMARK   56  A    between atoms: _147  and  _148
REMARK   57  A    between atoms: _151  and  _153
REMARK   58  A    between atoms: _153  and  _154
REMARK   59  A    between atoms: _153  and  _156
REMARK   60  A    between atoms: _156  and  _157
REMARK   61  A    between atoms: _162  and  _164
REMARK   62  A    between atoms: _164  and  _165
REMARK   63  A    between atoms: _168  and  _170
REMARK   64  A    between atoms: _170  and  _171
REMARK   65  A    between atoms: _170  and  _173
REMARK   66  A    between atoms: _173  and  _174
REMARK   67  A    between atoms: _184  and  _186
REMARK   68  A    between atoms: _186  and  _187
REMARK   69  A    between atoms: _186  and  _189
REMARK   70  A    between atoms: _189  and  _190
REMARK   71  A    between atoms: _192  and  _194
REMARK   72  A    between atoms: _194  and  _195
REMARK   73  A    between atoms: _194  and  _197
REMARK   74  A    between atoms: _197  and  _198
REMARK   75  A    between atoms: _201  and  _203
REMARK   76  A    between atoms: _203  and  _204
REMARK   77  A    between atoms: _203  and  _206
REMARK   78  A    between atoms: _208  and  _210
REMARK   79  A    between atoms: _210  and  _211
REMARK   80  A    between atoms: _210  and  _213
REMARK   81  A    between atoms: _213  and  _214
REMARK   82  A    between atoms: _221  and  _222
REMARK   83  A    between atoms: _227  and  _229
REMARK   84  A    between atoms: _229  and  _230
REMARK   85  A    between atoms: _229  and  _232
REMARK   86  A    between atoms: _232  and  _233
REMARK   87  A    between atoms: _243  and  _245
REMARK   88  A    between atoms: _245  and  _246
REMARK   89  A    between atoms: _245  and  _248
REMARK   90  A    between atoms: _251  and  _253
REMARK   91  A    between atoms: _253  and  _254
REMARK   92  A    between atoms: _253  and  _256
REMARK   93  A    between atoms: _256  and  _257
REMARK   94  A    between atoms: _267  and  _269
REMARK   95  A    between atoms: _269  and  _270
REMARK   96  A    between atoms: _272  and  _274
REMARK   97  A    between atoms: _274  and  _275
REMARK   98  A    between atoms: _274  and  _277
REMARK   99  A    between atoms: _277  and  _278
REMARK  100  A    between atoms: _278  and  _279
REMARK  101  A    between atoms: _282  and  _284
REMARK  102  A    between atoms: _284  and  _285
REMARK  103  A    between atoms: _287  and  _289
REMARK  104  A    between atoms: _289  and  _290
REMARK  105  A    between atoms: _293  and  _295
REMARK  106  A    between atoms: _295  and  _296
REMARK  107  A    between atoms: _295  and  _298
REMARK  108  A    between atoms: _298  and  _299
REMARK  109  A    between atoms: _302  and  _304
REMARK  110  A    between atoms: _304  and  _305
REMARK  111  A    between atoms: _304  and  _307
REMARK  112  A    between atoms: _307  and  _308
REMARK  113  A    between atoms: _314  and  _316
REMARK  114  A    between atoms: _316  and  _317
REMARK  115  A    between atoms: _316  and  _319
REMARK  116  A    between atoms: _319  and  _320
REMARK  117  A    between atoms: _325  and  _326
REMARK  118  A    between atoms: _328  and  _330
REMARK  119  A    between atoms: _330  and  _331
REMARK  120  A    between atoms: _330  and  _333
REMARK  121  A    between atoms: _333  and  _334
REMARK  122  A    between atoms: _339  and  _341
REMARK  123  A    between atoms: _341  and  _342
REMARK  124  A    between atoms: _341  and  _344
REMARK  125  A    between atoms: _344  and  _345
REMARK  126  A    between atoms: _351  and  _353
REMARK  127  A    between atoms: _353  and  _354
REMARK  128  A    between atoms: _353  and  _356
REMARK  129  A    between atoms: _356  and  _357
REMARK  130  A    between atoms: _362  and  _364
REMARK  131  A    between atoms: _364  and  _365
REMARK  132  A    between atoms: _364  and  _367
REMARK  133  A    between atoms: _367  and  _368
REMARK  134  A    between atoms: _368  and  _369
REMARK  135  A    between atoms: _374  and  _376
REMARK  136  A    between atoms: _376  and  _377
REMARK  137  A    between atoms: _376  and  _379
REMARK  138  A    between atoms: _379  and  _380
REMARK  139  A    between atoms: _380  and  _381
REMARK  140  A    between atoms: _384  and  _386
REMARK  141  A    between atoms: _386  and  _387
REMARK  142  A    between atoms: _386  and  _389
REMARK  143  A    between atoms: _389  and  _390
REMARK  144  A    between atoms: _390  and  _391
REMARK  145  A    between atoms: _393  and  _395
REMARK  146  A    between atoms: _395  and  _396
REMARK  147  A    between atoms: _395  and  _398
REMARK  148  A    between atoms: _398  and  _399
REMARK  149  A    between atoms: _399  and  _400
REMARK  150  A    between atoms: _405  and  _407
REMARK  151  A    between atoms: _407  and  _408
REMARK  152  A    between atoms: _407  and  _410
REMARK  153  A    between atoms: _410  and  _411
REMARK  154  A    between atoms: _414  and  _416
REMARK  155  A    between atoms: _416  and  _417
REMARK  156  A    between atoms: _416  and  _419
REMARK  157  A    between atoms: _422  and  _424
REMARK  158  A    between atoms: _424  and  _425
REMARK  159  A    between atoms: _424  and  _427
REMARK  160  A    between atoms: _427  and  _428
REMARK  161  A    between atoms: _428  and  _429
REMARK  162  A    between atoms: _429  and  _430
REMARK  163  A    between atoms: _439  and  _441
REMARK  164  A    between atoms: _441  and  _442
REMARK  165  A    between atoms: _441  and  _444
REMARK  166  A    between atoms: _444  and  _445
REMARK  167  A    between atoms: _449  and  _450
REMARK                            x       y       z     vdW  Elec       q    Type
REMARK                         _______ _______ _______ _____ _____    ______ ____
ROOT
ATOM      1  O   HOH     1      44.055  -2.578  90.651  0.00  0.00    +0.000 OA
ENDROOT
TORSDOF 0
REMARK  Name = ../refined-set-2016/3jup/3jup_pocket.pdb
REMARK  167 active torsions:
REMARK  status: ('A' for Active; 'I' for Inactive)
REMARK    1  A    between atoms: _1  and  _3
REMARK    2  A    between atoms: _3  and  _4
REMARK    3  A    between atoms: _3  and  _6
REMARK    4  A    between atoms: _6  and  _7
REMARK    5  A    between atoms: _12  and  _13
REMARK    6  A    between atoms: _15  and  _17
REMARK    7  A    between atoms: _17  and  _18
REMARK    8  A    between atoms: _17  and  _20
REMARK    9  A    between atoms: _20  and  _21
REMARK   10  A    between atoms: _21  and  _22
REMARK   11  A    between atoms: _22  and  _23
REMARK   12  A    between atoms: _32  and  _34
REMARK   13  A    between atoms: _34  and  _35
REMARK   14  A    between atoms: _34  and  _37
REMARK   15  A    between atoms: _37  and  _38
REMARK   16  A    between atoms: _38  and  _39
REMARK   17  A    between atoms: _39  and  _40
REMARK   18  A    between atoms: _49  and  _51
REMARK   19  A    between atoms: _51  and  _52
REMARK   20  A    between atoms: _54  and  _56
REMARK   21  A    between atoms: _56  and  _57
REMARK   22  A    between atoms: _59  and  _61
REMARK   23  A    between atoms: _61  and  _62
REMARK   24  A    between atoms: _61  and  _64
REMARK   25  A    between atoms: _64  and  _65
REMARK   26  A    between atoms: _68  and  _70
REMARK   27  A    between atoms: _70  and  _71
REMARK   28  A    between atoms: _70  and  _73
REMARK   29  A    between atoms: _73  and  _74
REMARK   30  A    between atoms: _84  and  _86
REMARK   31  A    between atoms: _86  and  _87
REMARK   32  A    between atoms: _86  and  _89
REMARK   33  A    between atoms: _89  and  _90
REMARK   34  A    between atoms: _93  and  _95
REMARK   35  A    between atoms: _95  and  _96
REMARK   36  A    between atoms: _95  and  _98
REMARK   37  A    between atoms: _98  and  _99
REMARK   38  A    between atoms: _102  and  _104
REMARK   39  A    between atoms: _104  and  _105
REMARK   40  A    between atoms: _104  and  _107
REMARK   41  A    between atoms: _107  and  _108
REMARK   42  A    between atoms: _112  and  _113
REMARK   43  A    between atoms: _118  and  _120
REMARK   44  A    between atoms: _120  and  _121
REMARK   45  A    between atoms: _120  and  _123
REMARK   46  A    between atoms: _123  and  _124
REMARK   47  A    between atoms: _127  and  _129
REMARK   48  A    between atoms: _129  and  _130
REMARK   49  A    between atoms: _133  and  _135
REMARK   50  A    between atoms: _135  and  _136
REMARK   51  A    between atoms: _135  and  _138
REMARK   52  A    between atoms: _138  and  _139
REMARK   53  A    between atoms: _142  and  _144
REMARK   54  A    between atoms: _144  and  _145
REMARK   55  A    between atoms: _144  and  _147
REMARK   56  A    between atoms: _147  and  _148
REMARK   57  A    between atoms: _151  and  _153
REMARK   58  A    between atoms: _153  and  _154
REMARK   59  A    between atoms: _153  and  _156
REMARK   60  A    between atoms: _156  and  _157
REMARK   61  A    between atoms: _162  and  _164
REMARK   62  A    between atoms: _164  and  _165
REMARK   63  A    between atoms: _168  and  _170
REMARK   64  A    between atoms: _170  and  _171
REMARK   65  A    between atoms: _170  and  _173
REMARK   66  A    between atoms: _173  and  _174
REMARK   67  A    between atoms: _184  and  _186
REMARK   68  A    between atoms: _186  and  _187
REMARK   69  A    between atoms: _186  and  _189
REMARK   70  A    between atoms: _189  and  _190
REMARK   71  A    between atoms: _192  and  _194
REMARK   72  A    between atoms: _194  and  _195
REMARK   73  A    between atoms: _194  and  _197
REMARK   74  A    between atoms: _197  and  _198
REMARK   75  A    between atoms: _201  and  _203
REMARK   76  A    between atoms: _203  and  _204
REMARK   77  A    between atoms: _203  and  _206
REMARK   78  A    between atoms: _208  and  _210
REMARK   79  A    between atoms: _210  and  _211
REMARK   80  A    between atoms: _210  and  _213
REMARK   81  A    between atoms: _213  and  _214
REMARK   82  A    between atoms: _221  and  _222
REMARK   83  A    between atoms: _227  and  _229
REMARK   84  A    between atoms: _229  and  _230
REMARK   85  A    between atoms: _229  and  _232
REMARK   86  A    between atoms: _232  and  _233
REMARK   87  A    between atoms: _243  and  _245
REMARK   88  A    between atoms: _245  and  _246
REMARK   89  A    between atoms: _245  and  _248
REMARK   90  A    between atoms: _251  and  _253
REMARK   91  A    between atoms: _253  and  _254
REMARK   92  A    between atoms: _253  and  _256
REMARK   93  A    between atoms: _256  and  _257
REMARK   94  A    between atoms: _267  and  _269
REMARK   95  A    between atoms: _269  and  _270
REMARK   96  A    between atoms: _272  and  _274
REMARK   97  A    between atoms: _274  and  _275
REMARK   98  A    between atoms: _274  and  _277
REMARK   99  A    between atoms: _277  and  _278
REMARK  100  A    between atoms: _278  and  _279
REMARK  101  A    between atoms: _282  and  _284
REMARK  102  A    between atoms: _284  and  _285
REMARK  103  A    between atoms: _287  and  _289
REMARK  104  A    between atoms: _289  and  _290
REMARK  105  A    between atoms: _293  and  _295
REMARK  106  A    between atoms: _295  and  _296
REMARK  107  A    between atoms: _295  and  _298
REMARK  108  A    between atoms: _298  and  _299
REMARK  109  A    between atoms: _302  and  _304
REMARK  110  A    between atoms: _304  and  _305
REMARK  111  A    between atoms: _304  and  _307
REMARK  112  A    between atoms: _307  and  _308
REMARK  113  A    between atoms: _314  and  _316
REMARK  114  A    between atoms: _316  and  _317
REMARK  115  A    between atoms: _316  and  _319
REMARK  116  A    between atoms: _319  and  _320
REMARK  117  A    between atoms: _325  and  _326
REMARK  118  A    between atoms: _328  and  _330
REMARK  119  A    between atoms: _330  and  _331
REMARK  120  A    between atoms: _330  and  _333
REMARK  121  A    between atoms: _333  and  _334
REMARK  122  A    between atoms: _339  and  _341
REMARK  123  A    between atoms: _341  and  _342
REMARK  124  A    between atoms: _341  and  _344
REMARK  125  A    between atoms: _344  and  _345
REMARK  126  A    between atoms: _351  and  _353
REMARK  127  A    between atoms: _353  and  _354
REMARK  128  A    between atoms: _353  and  _356
REMARK  129  A    between atoms: _356  and  _357
REMARK  130  A    between atoms: _362  and  _364
REMARK  131  A    between atoms: _364  and  _365
REMARK  132  A    between atoms: _364  and  _367
REMARK  133  A    between atoms: _367  and  _368
REMARK  134  A    between atoms: _368  and  _369
REMARK  135  A    between atoms: _374  and  _376
REMARK  136  A    between atoms: _376  and  _377
REMARK  137  A    between atoms: _376  and  _379
REMARK  138  A    between atoms: _379  and  _380
REMARK  139  A    between atoms: _380  and  _381
REMARK  140  A    between atoms: _384  and  _386
REMARK  141  A    between atoms: _386  and  _387
REMARK  142  A    between atoms: _386  and  _389
REMARK  143  A    between atoms: _389  and  _390
REMARK  144  A    between atoms: _390  and  _391
REMARK  145  A    between atoms: _393  and  _395
REMARK  146  A    between atoms: _395  and  _396
REMARK  147  A    between atoms: _395  and  _398
REMARK  148  A    between atoms: _398  and  _399
REMARK  149  A    between atoms: _399  and  _400
REMARK  150  A    between atoms: _405  and  _407
REMARK  151  A    between atoms: _407  and  _408
REMARK  152  A    between atoms: _407  and  _410
REMARK  153  A    between atoms: _410  and  _411
REMARK  154  A    between atoms: _414  and  _416
REMARK  155  A    between atoms: _416  and  _417
REMARK  156  A    between atoms: _416  and  _419
REMARK  157  A    between atoms: _422  and  _424
REMARK  158  A    between atoms: _424  and  _425
REMARK  159  A    between atoms: _424  and  _427
REMARK  160  A    between atoms: _427  and  _428
REMARK  161  A    between atoms: _428  and  _429
REMARK  162  A    between atoms: _429  and  _430
REMARK  163  A    between atoms: _439  and  _441
REMARK  164  A    between atoms: _441  and  _442
REMARK  165  A    between atoms: _441  and  _444
REMARK  166  A    between atoms: _444  and  _445
REMARK  167  A    between atoms: _449  and  _450
REMARK                            x       y       z     vdW  Elec       q    Type
REMARK                         _______ _______ _______ _____ _____    ______ ____
ROOT
ATOM      1  O   HOH     1      44.956  -1.627  92.125  0.00  0.00    +0.000 OA
ENDROOT
TORSDOF 0
REMARK  Name = ../refined-set-2016/3jup/3jup_pocket.pdb
REMARK  167 active torsions:
REMARK  status: ('A' for Active; 'I' for Inactive)
REMARK    1  A    between atoms: _1  and  _3
REMARK    2  A    between atoms: _3  and  _4
REMARK    3  A    between atoms: _3  and  _6
REMARK    4  A    between atoms: _6  and  _7
REMARK    5  A    between atoms: _12  and  _13
REMARK    6  A    between atoms: _15  and  _17
REMARK    7  A    between atoms: _17  and  _18
REMARK    8  A    between atoms: _17  and  _20
REMARK    9  A    between atoms: _20  and  _21
REMARK   10  A    between atoms: _21  and  _22
REMARK   11  A    between atoms: _22  and  _23
REMARK   12  A    between atoms: _32  and  _34
REMARK   13  A    between atoms: _34  and  _35
REMARK   14  A    between atoms: _34  and  _37
REMARK   15  A    between atoms: _37  and  _38
REMARK   16  A    between atoms: _38  and  _39
REMARK   17  A    between atoms: _39  and  _40
REMARK   18  A    between atoms: _49  and  _51
REMARK   19  A    between atoms: _51  and  _52
REMARK   20  A    between atoms: _54  and  _56
REMARK   21  A    between atoms: _56  and  _57
REMARK   22  A    between atoms: _59  and  _61
REMARK   23  A    between atoms: _61  and  _62
REMARK   24  A    between atoms: _61  and  _64
REMARK   25  A    between atoms: _64  and  _65
REMARK   26  A    between atoms: _68  and  _70
REMARK   27  A    between atoms: _70  and  _71
REMARK   28  A    between atoms: _70  and  _73
REMARK   29  A    between atoms: _73  and  _74
REMARK   30  A    between atoms: _84  and  _86
REMARK   31  A    between atoms: _86  and  _87
REMARK   32  A    between atoms: _86  and  _89
REMARK   33  A    between atoms: _89  and  _90
REMARK   34  A    between atoms: _93  and  _95
REMARK   35  A    between atoms: _95  and  _96
REMARK   36  A    between atoms: _95  and  _98
REMARK   37  A    between atoms: _98  and  _99
REMARK   38  A    between atoms: _102  and  _104
REMARK   39  A    between atoms: _104  and  _105
REMARK   40  A    between atoms: _104  and  _107
REMARK   41  A    between atoms: _107  and  _108
REMARK   42  A    between atoms: _112  and  _113
REMARK   43  A    between atoms: _118  and  _120
REMARK   44  A    between atoms: _120  and  _121
REMARK   45  A    between atoms: _120  and  _123
REMARK   46  A    between atoms: _123  and  _124
REMARK   47  A    between atoms: _127  and  _129
REMARK   48  A    between atoms: _129  and  _130
REMARK   49  A    between atoms: _133  and  _135
REMARK   50  A    between atoms: _135  and  _136
REMARK   51  A    between atoms: _135  and  _138
REMARK   52  A    between atoms: _138  and  _139
REMARK   53  A    between atoms: _142  and  _144
REMARK   54  A    between atoms: _144  and  _145
REMARK   55  A    between atoms: _144  and  _147
REMARK   56  A    between atoms: _147  and  _148
REMARK   57  A    between atoms: _151  and  _153
REMARK   58  A    between atoms: _153  and  _154
REMARK   59  A    between atoms: _153  and  _156
REMARK   60  A    between atoms: _156  and  _157
REMARK   61  A    between atoms: _162  and  _164
REMARK   62  A    between atoms: _164  and  _165
REMARK   63  A    between atoms: _168  and  _170
REMARK   64  A    between atoms: _170  and  _171
REMARK   65  A    between atoms: _170  and  _173
REMARK   66  A    between atoms: _173  and  _174
REMARK   67  A    between atoms: _184  and  _186
REMARK   68  A    between atoms: _186  and  _187
REMARK   69  A    between atoms: _186  and  _189
REMARK   70  A    between atoms: _189  and  _190
REMARK   71  A    between atoms: _192  and  _194
REMARK   72  A    between atoms: _194  and  _195
REMARK   73  A    between atoms: _194  and  _197
REMARK   74  A    between atoms: _197  and  _198
REMARK   75  A    between atoms: _201  and  _203
REMARK   76  A    between atoms: _203  and  _204
REMARK   77  A    between atoms: _203  and  _206
REMARK   78  A    between atoms: _208  and  _210
REMARK   79  A    between atoms: _210  and  _211
REMARK   80  A    between atoms: _210  and  _213
REMARK   81  A    between atoms: _213  and  _214
REMARK   82  A    between atoms: _221  and  _222
REMARK   83  A    between atoms: _227  and  _229
REMARK   84  A    between atoms: _229  and  _230
REMARK   85  A    between atoms: _229  and  _232
REMARK   86  A    between atoms: _232  and  _233
REMARK   87  A    between atoms: _243  and  _245
REMARK   88  A    between atoms: _245  and  _246
REMARK   89  A    between atoms: _245  and  _248
REMARK   90  A    between atoms: _251  and  _253
REMARK   91  A    between atoms: _253  and  _254
REMARK   92  A    between atoms: _253  and  _256
REMARK   93  A    between atoms: _256  and  _257
REMARK   94  A    between atoms: _267  and  _269
REMARK   95  A    between atoms: _269  and  _270
REMARK   96  A    between atoms: _272  and  _274
REMARK   97  A    between atoms: _274  and  _275
REMARK   98  A    between atoms: _274  and  _277
REMARK   99  A    between atoms: _277  and  _278
REMARK  100  A    between atoms: _278  and  _279
REMARK  101  A    between atoms: _282  and  _284
REMARK  102  A    between atoms: _284  and  _285
REMARK  103  A    between atoms: _287  and  _289
REMARK  104  A    between atoms: _289  and  _290
REMARK  105  A    between atoms: _293  and  _295
REMARK  106  A    between atoms: _295  and  _296
REMARK  107  A    between atoms: _295  and  _298
REMARK  108  A    between atoms: _298  and  _299
REMARK  109  A    between atoms: _302  and  _304
REMARK  110  A    between atoms: _304  and  _305
REMARK  111  A    between atoms: _304  and  _307
REMARK  112  A    between atoms: _307  and  _308
REMARK  113  A    between atoms: _314  and  _316
REMARK  114  A    between atoms: _316  and  _317
REMARK  115  A    between atoms: _316  and  _319
REMARK  116  A    between atoms: _319  and  _320
REMARK  117  A    between atoms: _325  and  _326
REMARK  118  A    between atoms: _328  and  _330
REMARK  119  A    between atoms: _330  and  _331
REMARK  120  A    between atoms: _330  and  _333
REMARK  121  A    between atoms: _333  and  _334
REMARK  122  A    between atoms: _339  and  _341
REMARK  123  A    between atoms: _341  and  _342
REMARK  124  A    between atoms: _341  and  _344
REMARK  125  A    between atoms: _344  and  _345
REMARK  126  A    between atoms: _351  and  _353
REMARK  127  A    between atoms: _353  and  _354
REMARK  128  A    between atoms: _353  and  _356
REMARK  129  A    between atoms: _356  and  _357
REMARK  130  A    between atoms: _362  and  _364
REMARK  131  A    between atoms: _364  and  _365
REMARK  132  A    between atoms: _364  and  _367
REMARK  133  A    between atoms: _367  and  _368
REMARK  134  A    between atoms: _368  and  _369
REMARK  135  A    between atoms: _374  and  _376
REMARK  136  A    between atoms: _376  and  _377
REMARK  137  A    between atoms: _376  and  _379
REMARK  138  A    between atoms: _379  and  _380
REMARK  139  A    between atoms: _380  and  _381
REMARK  140  A    between atoms: _384  and  _386
REMARK  141  A    between atoms: _386  and  _387
REMARK  142  A    between atoms: _386  and  _389
REMARK  143  A    between atoms: _389  and  _390
REMARK  144  A    between atoms: _390  and  _391
REMARK  145  A    between atoms: _393  and  _395
REMARK  146  A    between atoms: _395  and  _396
REMARK  147  A    between atoms: _395  and  _398
REMARK  148  A    between atoms: _398  and  _399
REMARK  149  A    between atoms: _399  and  _400
REMARK  150  A    between atoms: _405  and  _407
REMARK  151  A    between atoms: _407  and  _408
REMARK  152  A    between atoms: _407  and  _410
REMARK  153  A    between atoms: _410  and  _411
REMARK  154  A    between atoms: _414  and  _416
REMARK  155  A    between atoms: _416  and  _417
REMARK  156  A    between atoms: _416  and  _419
REMARK  157  A    between atoms: _422  and  _424
REMARK  158  A    between atoms: _424  and  _425
REMARK  159  A    between atoms: _424  and  _427
REMARK  160  A    between atoms: _427  and  _428
REMARK  161  A    between atoms: _428  and  _429
REMARK  162  A    between atoms: _429  and  _430
REMARK  163  A    between atoms: _439  and  _441
REMARK  164  A    between atoms: _441  and  _442
REMARK  165  A    between atoms: _441  and  _444
REMARK  166  A    between atoms: _444  and  _445
REMARK  167  A    between atoms: _449  and  _450
REMARK                            x       y       z     vdW  Elec       q    Type
REMARK                         _______ _______ _______ _____ _____    ______ ____
ROOT
ATOM      1  O   HOH     1      48.999  -3.561  92.732  0.00  0.00    +0.000 OA
ENDROOT
TORSDOF 0
REMARK  Name = ../refined-set-2016/3jup/3jup_pocket.pdb
REMARK  167 active torsions:
REMARK  status: ('A' for Active; 'I' for Inactive)
REMARK    1  A    between atoms: _1  and  _3
REMARK    2  A    between atoms: _3  and  _4
REMARK    3  A    between atoms: _3  and  _6
REMARK    4  A    between atoms: _6  and  _7
REMARK    5  A    between atoms: _12  and  _13
REMARK    6  A    between atoms: _15  and  _17
REMARK    7  A    between atoms: _17  and  _18
REMARK    8  A    between atoms: _17  and  _20
REMARK    9  A    between atoms: _20  and  _21
REMARK   10  A    between atoms: _21  and  _22
REMARK   11  A    between atoms: _22  and  _23
REMARK   12  A    between atoms: _32  and  _34
REMARK   13  A    between atoms: _34  and  _35
REMARK   14  A    between atoms: _34  and  _37
REMARK   15  A    between atoms: _37  and  _38
REMARK   16  A    between atoms: _38  and  _39
REMARK   17  A    between atoms: _39  and  _40
REMARK   18  A    between atoms: _49  and  _51
REMARK   19  A    between atoms: _51  and  _52
REMARK   20  A    between atoms: _54  and  _56
REMARK   21  A    between atoms: _56  and  _57
REMARK   22  A    between atoms: _59  and  _61
REMARK   23  A    between atoms: _61  and  _62
REMARK   24  A    between atoms: _61  and  _64
REMARK   25  A    between atoms: _64  and  _65
REMARK   26  A    between atoms: _68  and  _70
REMARK   27  A    between atoms: _70  and  _71
REMARK   28  A    between atoms: _70  and  _73
REMARK   29  A    between atoms: _73  and  _74
REMARK   30  A    between atoms: _84  and  _86
REMARK   31  A    between atoms: _86  and  _87
REMARK   32  A    between atoms: _86  and  _89
REMARK   33  A    between atoms: _89  and  _90
REMARK   34  A    between atoms: _93  and  _95
REMARK   35  A    between atoms: _95  and  _96
REMARK   36  A    between atoms: _95  and  _98
REMARK   37  A    between atoms: _98  and  _99
REMARK   38  A    between atoms: _102  and  _104
REMARK   39  A    between atoms: _104  and  _105
REMARK   40  A    between atoms: _104  and  _107
REMARK   41  A    between atoms: _107  and  _108
REMARK   42  A    between atoms: _112  and  _113
REMARK   43  A    between atoms: _118  and  _120
REMARK   44  A    between atoms: _120  and  _121
REMARK   45  A    between atoms: _120  and  _123
REMARK   46  A    between atoms: _123  and  _124
REMARK   47  A    between atoms: _127  and  _129
REMARK   48  A    between atoms: _129  and  _130
REMARK   49  A    between atoms: _133  and  _135
REMARK   50  A    between atoms: _135  and  _136
REMARK   51  A    between atoms: _135  and  _138
REMARK   52  A    between atoms: _138  and  _139
REMARK   53  A    between atoms: _142  and  _144
REMARK   54  A    between atoms: _144  and  _145
REMARK   55  A    between atoms: _144  and  _147
REMARK   56  A    between atoms: _147  and  _148
REMARK   57  A    between atoms: _151  and  _153
REMARK   58  A    between atoms: _153  and  _154
REMARK   59  A    between atoms: _153  and  _156
REMARK   60  A    between atoms: _156  and  _157
REMARK   61  A    between atoms: _162  and  _164
REMARK   62  A    between atoms: _164  and  _165
REMARK   63  A    between atoms: _168  and  _170
REMARK   64  A    between atoms: _170  and  _171
REMARK   65  A    between atoms: _170  and  _173
REMARK   66  A    between atoms: _173  and  _174
REMARK   67  A    between atoms: _184  and  _186
REMARK   68  A    between atoms: _186  and  _187
REMARK   69  A    between atoms: _186  and  _189
REMARK   70  A    between atoms: _189  and  _190
REMARK   71  A    between atoms: _192  and  _194
REMARK   72  A    between atoms: _194  and  _195
REMARK   73  A    between atoms: _194  and  _197
REMARK   74  A    between atoms: _197  and  _198
REMARK   75  A    between atoms: _201  and  _203
REMARK   76  A    between atoms: _203  and  _204
REMARK   77  A    between atoms: _203  and  _206
REMARK   78  A    between atoms: _208  and  _210
REMARK   79  A    between atoms: _210  and  _211
REMARK   80  A    between atoms: _210  and  _213
REMARK   81  A    between atoms: _213  and  _214
REMARK   82  A    between atoms: _221  and  _222
REMARK   83  A    between atoms: _227  and  _229
REMARK   84  A    between atoms: _229  and  _230
REMARK   85  A    between atoms: _229  and  _232
REMARK   86  A    between atoms: _232  and  _233
REMARK   87  A    between atoms: _243  and  _245
REMARK   88  A    between atoms: _245  and  _246
REMARK   89  A    between atoms: _245  and  _248
REMARK   90  A    between atoms: _251  and  _253
REMARK   91  A    between atoms: _253  and  _254
REMARK   92  A    between atoms: _253  and  _256
REMARK   93  A    between atoms: _256  and  _257
REMARK   94  A    between atoms: _267  and  _269
REMARK   95  A    between atoms: _269  and  _270
REMARK   96  A    between atoms: _272  and  _274
REMARK   97  A    between atoms: _274  and  _275
REMARK   98  A    between atoms: _274  and  _277
REMARK   99  A    between atoms: _277  and  _278
REMARK  100  A    between atoms: _278  and  _279
REMARK  101  A    between atoms: _282  and  _284
REMARK  102  A    between atoms: _284  and  _285
REMARK  103  A    between atoms: _287  and  _289
REMARK  104  A    between atoms: _289  and  _290
REMARK  105  A    between atoms: _293  and  _295
REMARK  106  A    between atoms: _295  and  _296
REMARK  107  A    between atoms: _295  and  _298
REMARK  108  A    between atoms: _298  and  _299
REMARK  109  A    between atoms: _302  and  _304
REMARK  110  A    between atoms: _304  and  _305
REMARK  111  A    between atoms: _304  and  _307
REMARK  112  A    between atoms: _307  and  _308
REMARK  113  A    between atoms: _314  and  _316
REMARK  114  A    between atoms: _316  and  _317
REMARK  115  A    between atoms: _316  and  _319
REMARK  116  A    between atoms: _319  and  _320
REMARK  117  A    between atoms: _325  and  _326
REMARK  118  A    between atoms: _328  and  _330
REMARK  119  A    between atoms: _330  and  _331
REMARK  120  A    between atoms: _330  and  _333
REMARK  121  A    between atoms: _333  and  _334
REMARK  122  A    between atoms: _339  and  _341
REMARK  123  A    between atoms: _341  and  _342
REMARK  124  A    between atoms: _341  and  _344
REMARK  125  A    between atoms: _344  and  _345
REMARK  126  A    between atoms: _351  and  _353
REMARK  127  A    between atoms: _353  and  _354
REMARK  128  A    between atoms: _353  and  _356
REMARK  129  A    between atoms: _356  and  _357
REMARK  130  A    between atoms: _362  and  _364
REMARK  131  A    between atoms: _364  and  _365
REMARK  132  A    between atoms: _364  and  _367
REMARK  133  A    between atoms: _367  and  _368
REMARK  134  A    between atoms: _368  and  _369
REMARK  135  A    between atoms: _374  and  _376
REMARK  136  A    between atoms: _376  and  _377
REMARK  137  A    between atoms: _376  and  _379
REMARK  138  A    between atoms: _379  and  _380
REMARK  139  A    between atoms: _380  and  _381
REMARK  140  A    between atoms: _384  and  _386
REMARK  141  A    between atoms: _386  and  _387
REMARK  142  A    between atoms: _386  and  _389
REMARK  143  A    between atoms: _389  and  _390
REMARK  144  A    between atoms: _390  and  _391
REMARK  145  A    between atoms: _393  and  _395
REMARK  146  A    between atoms: _395  and  _396
REMARK  147  A    between atoms: _395  and  _398
REMARK  148  A    between atoms: _398  and  _399
REMARK  149  A    between atoms: _399  and  _400
REMARK  150  A    between atoms: _405  and  _407
REMARK  151  A    between atoms: _407  and  _408
REMARK  152  A    between atoms: _407  and  _410
REMARK  153  A    between atoms: _410  and  _411
REMARK  154  A    between atoms: _414  and  _416
REMARK  155  A    between atoms: _416  and  _417
REMARK  156  A    between atoms: _416  and  _419
REMARK  157  A    between atoms: _422  and  _424
REMARK  158  A    between atoms: _424  and  _425
REMARK  159  A    between atoms: _424  and  _427
REMARK  160  A    between atoms: _427  and  _428
REMARK  161  A    between atoms: _428  and  _429
REMARK  162  A    between atoms: _429  and  _430
REMARK  163  A    between atoms: _439  and  _441
REMARK  164  A    between atoms: _441  and  _442
REMARK  165  A    between atoms: _441  and  _444
REMARK  166  A    between atoms: _444  and  _445
REMARK  167  A    between atoms: _449  and  _450
REMARK                            x       y       z     vdW  Elec       q    Type
REMARK                         _______ _______ _______ _____ _____    ______ ____
ROOT
ATOM      1  O   HOH     1      47.011  12.949  93.566  0.00  0.00    +0.000 OA
ENDROOT
TORSDOF 0
REMARK  Name = ../refined-set-2016/3jup/3jup_pocket.pdb
REMARK  167 active torsions:
REMARK  status: ('A' for Active; 'I' for Inactive)
REMARK    1  A    between atoms: _1  and  _3
REMARK    2  A    between atoms: _3  and  _4
REMARK    3  A    between atoms: _3  and  _6
REMARK    4  A    between atoms: _6  and  _7
REMARK    5  A    between atoms: _12  and  _13
REMARK    6  A    between atoms: _15  and  _17
REMARK    7  A    between atoms: _17  and  _18
REMARK    8  A    between atoms: _17  and  _20
REMARK    9  A    between atoms: _20  and  _21
REMARK   10  A    between atoms: _21  and  _22
REMARK   11  A    between atoms: _22  and  _23
REMARK   12  A    between atoms: _32  and  _34
REMARK   13  A    between atoms: _34  and  _35
REMARK   14  A    between atoms: _34  and  _37
REMARK   15  A    between atoms: _37  and  _38
REMARK   16  A    between atoms: _38  and  _39
REMARK   17  A    between atoms: _39  and  _40
REMARK   18  A    between atoms: _49  and  _51
REMARK   19  A    between atoms: _51  and  _52
REMARK   20  A    between atoms: _54  and  _56
REMARK   21  A    between atoms: _56  and  _57
REMARK   22  A    between atoms: _59  and  _61
REMARK   23  A    between atoms: _61  and  _62
REMARK   24  A    between atoms: _61  and  _64
REMARK   25  A    between atoms: _64  and  _65
REMARK   26  A    between atoms: _68  and  _70
REMARK   27  A    between atoms: _70  and  _71
REMARK   28  A    between atoms: _70  and  _73
REMARK   29  A    between atoms: _73  and  _74
REMARK   30  A    between atoms: _84  and  _86
REMARK   31  A    between atoms: _86  and  _87
REMARK   32  A    between atoms: _86  and  _89
REMARK   33  A    between atoms: _89  and  _90
REMARK   34  A    between atoms: _93  and  _95
REMARK   35  A    between atoms: _95  and  _96
REMARK   36  A    between atoms: _95  and  _98
REMARK   37  A    between atoms: _98  and  _99
REMARK   38  A    between atoms: _102  and  _104
REMARK   39  A    between atoms: _104  and  _105
REMARK   40  A    between atoms: _104  and  _107
REMARK   41  A    between atoms: _107  and  _108
REMARK   42  A    between atoms: _112  and  _113
REMARK   43  A    between atoms: _118  and  _120
REMARK   44  A    between atoms: _120  and  _121
REMARK   45  A    between atoms: _120  and  _123
REMARK   46  A    between atoms: _123  and  _124
REMARK   47  A    between atoms: _127  and  _129
REMARK   48  A    between atoms: _129  and  _130
REMARK   49  A    between atoms: _133  and  _135
REMARK   50  A    between atoms: _135  and  _136
REMARK   51  A    between atoms: _135  and  _138
REMARK   52  A    between atoms: _138  and  _139
REMARK   53  A    between atoms: _142  and  _144
REMARK   54  A    between atoms: _144  and  _145
REMARK   55  A    between atoms: _144  and  _147
REMARK   56  A    between atoms: _147  and  _148
REMARK   57  A    between atoms: _151  and  _153
REMARK   58  A    between atoms: _153  and  _154
REMARK   59  A    between atoms: _153  and  _156
REMARK   60  A    between atoms: _156  and  _157
REMARK   61  A    between atoms: _162  and  _164
REMARK   62  A    between atoms: _164  and  _165
REMARK   63  A    between atoms: _168  and  _170
REMARK   64  A    between atoms: _170  and  _171
REMARK   65  A    between atoms: _170  and  _173
REMARK   66  A    between atoms: _173  and  _174
REMARK   67  A    between atoms: _184  and  _186
REMARK   68  A    between atoms: _186  and  _187
REMARK   69  A    between atoms: _186  and  _189
REMARK   70  A    between atoms: _189  and  _190
REMARK   71  A    between atoms: _192  and  _194
REMARK   72  A    between atoms: _194  and  _195
REMARK   73  A    between atoms: _194  and  _197
REMARK   74  A    between atoms: _197  and  _198
REMARK   75  A    between atoms: _201  and  _203
REMARK   76  A    between atoms: _203  and  _204
REMARK   77  A    between atoms: _203  and  _206
REMARK   78  A    between atoms: _208  and  _210
REMARK   79  A    between atoms: _210  and  _211
REMARK   80  A    between atoms: _210  and  _213
REMARK   81  A    between atoms: _213  and  _214
REMARK   82  A    between atoms: _221  and  _222
REMARK   83  A    between atoms: _227  and  _229
REMARK   84  A    between atoms: _229  and  _230
REMARK   85  A    between atoms: _229  and  _232
REMARK   86  A    between atoms: _232  and  _233
REMARK   87  A    between atoms: _243  and  _245
REMARK   88  A    between atoms: _245  and  _246
REMARK   89  A    between atoms: _245  and  _248
REMARK   90  A    between atoms: _251  and  _253
REMARK   91  A    between atoms: _253  and  _254
REMARK   92  A    between atoms: _253  and  _256
REMARK   93  A    between atoms: _256  and  _257
REMARK   94  A    between atoms: _267  and  _269
REMARK   95  A    between atoms: _269  and  _270
REMARK   96  A    between atoms: _272  and  _274
REMARK   97  A    between atoms: _274  and  _275
REMARK   98  A    between atoms: _274  and  _277
REMARK   99  A    between atoms: _277  and  _278
REMARK  100  A    between atoms: _278  and  _279
REMARK  101  A    between atoms: _282  and  _284
REMARK  102  A    between atoms: _284  and  _285
REMARK  103  A    between atoms: _287  and  _289
REMARK  104  A    between atoms: _289  and  _290
REMARK  105  A    between atoms: _293  and  _295
REMARK  106  A    between atoms: _295  and  _296
REMARK  107  A    between atoms: _295  and  _298
REMARK  108  A    between atoms: _298  and  _299
REMARK  109  A    between atoms: _302  and  _304
REMARK  110  A    between atoms: _304  and  _305
REMARK  111  A    between atoms: _304  and  _307
REMARK  112  A    between atoms: _307  and  _308
REMARK  113  A    between atoms: _314  and  _316
REMARK  114  A    between atoms: _316  and  _317
REMARK  115  A    between atoms: _316  and  _319
REMARK  116  A    between atoms: _319  and  _320
REMARK  117  A    between atoms: _325  and  _326
REMARK  118  A    between atoms: _328  and  _330
REMARK  119  A    between atoms: _330  and  _331
REMARK  120  A    between atoms: _330  and  _333
REMARK  121  A    between atoms: _333  and  _334
REMARK  122  A    between atoms: _339  and  _341
REMARK  123  A    between atoms: _341  and  _342
REMARK  124  A    between atoms: _341  and  _344
REMARK  125  A    between atoms: _344  and  _345
REMARK  126  A    between atoms: _351  and  _353
REMARK  127  A    between atoms: _353  and  _354
REMARK  128  A    between atoms: _353  and  _356
REMARK  129  A    between atoms: _356  and  _357
REMARK  130  A    between atoms: _362  and  _364
REMARK  131  A    between atoms: _364  and  _365
REMARK  132  A    between atoms: _364  and  _367
REMARK  133  A    between atoms: _367  and  _368
REMARK  134  A    between atoms: _368  and  _369
REMARK  135  A    between atoms: _374  and  _376
REMARK  136  A    between atoms: _376  and  _377
REMARK  137  A    between atoms: _376  and  _379
REMARK  138  A    between atoms: _379  and  _380
REMARK  139  A    between atoms: _380  and  _381
REMARK  140  A    between atoms: _384  and  _386
REMARK  141  A    between atoms: _386  and  _387
REMARK  142  A    between atoms: _386  and  _389
REMARK  143  A    between atoms: _389  and  _390
REMARK  144  A    between atoms: _390  and  _391
REMARK  145  A    between atoms: _393  and  _395
REMARK  146  A    between atoms: _395  and  _396
REMARK  147  A    between atoms: _395  and  _398
REMARK  148  A    between atoms: _398  and  _399
REMARK  149  A    between atoms: _399  and  _400
REMARK  150  A    between atoms: _405  and  _407
REMARK  151  A    between atoms: _407  and  _408
REMARK  152  A    between atoms: _407  and  _410
REMARK  153  A    between atoms: _410  and  _411
REMARK  154  A    between atoms: _414  and  _416
REMARK  155  A    between atoms: _416  and  _417
REMARK  156  A    between atoms: _416  and  _419
REMARK  157  A    between atoms: _422  and  _424
REMARK  158  A    between atoms: _424  and  _425
REMARK  159  A    between atoms: _424  and  _427
REMARK  160  A    between atoms: _427  and  _428
REMARK  161  A    between atoms: _428  and  _429
REMARK  162  A    between atoms: _429  and  _430
REMARK  163  A    between atoms: _439  and  _441
REMARK  164  A    between atoms: _441  and  _442
REMARK  165  A    between atoms: _441  and  _444
REMARK  166  A    between atoms: _444  and  _445
REMARK  167  A    between atoms: _449  and  _450
REMARK                            x       y       z     vdW  Elec       q    Type
REMARK                         _______ _______ _______ _____ _____    ______ ____
ROOT
ATOM      1  O   HOH     1      43.785   1.730  88.356  0.00  0.00    +0.000 OA
ENDROOT
TORSDOF 0
REMARK  Name = ../refined-set-2016/3jup/3jup_pocket.pdb
REMARK  167 active torsions:
REMARK  status: ('A' for Active; 'I' for Inactive)
REMARK    1  A    between atoms: _1  and  _3
REMARK    2  A    between atoms: _3  and  _4
REMARK    3  A    between atoms: _3  and  _6
REMARK    4  A    between atoms: _6  and  _7
REMARK    5  A    between atoms: _12  and  _13
REMARK    6  A    between atoms: _15  and  _17
REMARK    7  A    between atoms: _17  and  _18
REMARK    8  A    between atoms: _17  and  _20
REMARK    9  A    between atoms: _20  and  _21
REMARK   10  A    between atoms: _21  and  _22
REMARK   11  A    between atoms: _22  and  _23
REMARK   12  A    between atoms: _32  and  _34
REMARK   13  A    between atoms: _34  and  _35
REMARK   14  A    between atoms: _34  and  _37
REMARK   15  A    between atoms: _37  and  _38
REMARK   16  A    between atoms: _38  and  _39
REMARK   17  A    between atoms: _39  and  _40
REMARK   18  A    between atoms: _49  and  _51
REMARK   19  A    between atoms: _51  and  _52
REMARK   20  A    between atoms: _54  and  _56
REMARK   21  A    between atoms: _56  and  _57
REMARK   22  A    between atoms: _59  and  _61
REMARK   23  A    between atoms: _61  and  _62
REMARK   24  A    between atoms: _61  and  _64
REMARK   25  A    between atoms: _64  and  _65
REMARK   26  A    between atoms: _68  and  _70
REMARK   27  A    between atoms: _70  and  _71
REMARK   28  A    between atoms: _70  and  _73
REMARK   29  A    between atoms: _73  and  _74
REMARK   30  A    between atoms: _84  and  _86
REMARK   31  A    between atoms: _86  and  _87
REMARK   32  A    between atoms: _86  and  _89
REMARK   33  A    between atoms: _89  and  _90
REMARK   34  A    between atoms: _93  and  _95
REMARK   35  A    between atoms: _95  and  _96
REMARK   36  A    between atoms: _95  and  _98
REMARK   37  A    between atoms: _98  and  _99
REMARK   38  A    between atoms: _102  and  _104
REMARK   39  A    between atoms: _104  and  _105
REMARK   40  A    between atoms: _104  and  _107
REMARK   41  A    between atoms: _107  and  _108
REMARK   42  A    between atoms: _112  and  _113
REMARK   43  A    between atoms: _118  and  _120
REMARK   44  A    between atoms: _120  and  _121
REMARK   45  A    between atoms: _120  and  _123
REMARK   46  A    between atoms: _123  and  _124
REMARK   47  A    between atoms: _127  and  _129
REMARK   48  A    between atoms: _129  and  _130
REMARK   49  A    between atoms: _133  and  _135
REMARK   50  A    between atoms: _135  and  _136
REMARK   51  A    between atoms: _135  and  _138
REMARK   52  A    between atoms: _138  and  _139
REMARK   53  A    between atoms: _142  and  _144
REMARK   54  A    between atoms: _144  and  _145
REMARK   55  A    between atoms: _144  and  _147
REMARK   56  A    between atoms: _147  and  _148
REMARK   57  A    between atoms: _151  and  _153
REMARK   58  A    between atoms: _153  and  _154
REMARK   59  A    between atoms: _153  and  _156
REMARK   60  A    between atoms: _156  and  _157
REMARK   61  A    between atoms: _162  and  _164
REMARK   62  A    between atoms: _164  and  _165
REMARK   63  A    between atoms: _168  and  _170
REMARK   64  A    between atoms: _170  and  _171
REMARK   65  A    between atoms: _170  and  _173
REMARK   66  A    between atoms: _173  and  _174
REMARK   67  A    between atoms: _184  and  _186
REMARK   68  A    between atoms: _186  and  _187
REMARK   69  A    between atoms: _186  and  _189
REMARK   70  A    between atoms: _189  and  _190
REMARK   71  A    between atoms: _192  and  _194
REMARK   72  A    between atoms: _194  and  _195
REMARK   73  A    between atoms: _194  and  _197
REMARK   74  A    between atoms: _197  and  _198
REMARK   75  A    between atoms: _201  and  _203
REMARK   76  A    between atoms: _203  and  _204
REMARK   77  A    between atoms: _203  and  _206
REMARK   78  A    between atoms: _208  and  _210
REMARK   79  A    between atoms: _210  and  _211
REMARK   80  A    between atoms: _210  and  _213
REMARK   81  A    between atoms: _213  and  _214
REMARK   82  A    between atoms: _221  and  _222
REMARK   83  A    between atoms: _227  and  _229
REMARK   84  A    between atoms: _229  and  _230
REMARK   85  A    between atoms: _229  and  _232
REMARK   86  A    between atoms: _232  and  _233
REMARK   87  A    between atoms: _243  and  _245
REMARK   88  A    between atoms: _245  and  _246
REMARK   89  A    between atoms: _245  and  _248
REMARK   90  A    between atoms: _251  and  _253
REMARK   91  A    between atoms: _253  and  _254
REMARK   92  A    between atoms: _253  and  _256
REMARK   93  A    between atoms: _256  and  _257
REMARK   94  A    between atoms: _267  and  _269
REMARK   95  A    between atoms: _269  and  _270
REMARK   96  A    between atoms: _272  and  _274
REMARK   97  A    between atoms: _274  and  _275
REMARK   98  A    between atoms: _274  and  _277
REMARK   99  A    between atoms: _277  and  _278
REMARK  100  A    between atoms: _278  and  _279
REMARK  101  A    between atoms: _282  and  _284
REMARK  102  A    between atoms: _284  and  _285
REMARK  103  A    between atoms: _287  and  _289
REMARK  104  A    between atoms: _289  and  _290
REMARK  105  A    between atoms: _293  and  _295
REMARK  106  A    between atoms: _295  and  _296
REMARK  107  A    between atoms: _295  and  _298
REMARK  108  A    between atoms: _298  and  _299
REMARK  109  A    between atoms: _302  and  _304
REMARK  110  A    between atoms: _304  and  _305
REMARK  111  A    between atoms: _304  and  _307
REMARK  112  A    between atoms: _307  and  _308
REMARK  113  A    between atoms: _314  and  _316
REMARK  114  A    between atoms: _316  and  _317
REMARK  115  A    between atoms: _316  and  _319
REMARK  116  A    between atoms: _319  and  _320
REMARK  117  A    between atoms: _325  and  _326
REMARK  118  A    between atoms: _328  and  _330
REMARK  119  A    between atoms: _330  and  _331
REMARK  120  A    between atoms: _330  and  _333
REMARK  121  A    between atoms: _333  and  _334
REMARK  122  A    between atoms: _339  and  _341
REMARK  123  A    between atoms: _341  and  _342
REMARK  124  A    between atoms: _341  and  _344
REMARK  125  A    between atoms: _344  and  _345
REMARK  126  A    between atoms: _351  and  _353
REMARK  127  A    between atoms: _353  and  _354
REMARK  128  A    between atoms: _353  and  _356
REMARK  129  A    between atoms: _356  and  _357
REMARK  130  A    between atoms: _362  and  _364
REMARK  131  A    between atoms: _364  and  _365
REMARK  132  A    between atoms: _364  and  _367
REMARK  133  A    between atoms: _367  and  _368
REMARK  134  A    between atoms: _368  and  _369
REMARK  135  A    between atoms: _374  and  _376
REMARK  136  A    between atoms: _376  and  _377
REMARK  137  A    between atoms: _376  and  _379
REMARK  138  A    between atoms: _379  and  _380
REMARK  139  A    between atoms: _380  and  _381
REMARK  140  A    between atoms: _384  and  _386
REMARK  141  A    between atoms: _386  and  _387
REMARK  142  A    between atoms: _386  and  _389
REMARK  143  A    between atoms: _389  and  _390
REMARK  144  A    between atoms: _390  and  _391
REMARK  145  A    between atoms: _393  and  _395
REMARK  146  A    between atoms: _395  and  _396
REMARK  147  A    between atoms: _395  and  _398
REMARK  148  A    between atoms: _398  and  _399
REMARK  149  A    between atoms: _399  and  _400
REMARK  150  A    between atoms: _405  and  _407
REMARK  151  A    between atoms: _407  and  _408
REMARK  152  A    between atoms: _407  and  _410
REMARK  153  A    between atoms: _410  and  _411
REMARK  154  A    between atoms: _414  and  _416
REMARK  155  A    between atoms: _416  and  _417
REMARK  156  A    between atoms: _416  and  _419
REMARK  157  A    between atoms: _422  and  _424
REMARK  158  A    between atoms: _424  and  _425
REMARK  159  A    between atoms: _424  and  _427
REMARK  160  A    between atoms: _427  and  _428
REMARK  161  A    between atoms: _428  and  _429
REMARK  162  A    between atoms: _429  and  _430
REMARK  163  A    between atoms: _439  and  _441
REMARK  164  A    between atoms: _441  and  _442
REMARK  165  A    between atoms: _441  and  _444
REMARK  166  A    between atoms: _444  and  _445
REMARK  167  A    between atoms: _449  and  _450
REMARK                            x       y       z     vdW  Elec       q    Type
REMARK                         _______ _______ _______ _____ _____    ______ ____
ROOT
ATOM      1  O   HOH     1      43.373  -7.767  89.743  0.00  0.00    +0.000 OA
ENDROOT
TORSDOF 0
REMARK  Name = ../refined-set-2016/3jup/3jup_pocket.pdb
REMARK  167 active torsions:
REMARK  status: ('A' for Active; 'I' for Inactive)
REMARK    1  A    between atoms: _1  and  _3
REMARK    2  A    between atoms: _3  and  _4
REMARK    3  A    between atoms: _3  and  _6
REMARK    4  A    between atoms: _6  and  _7
REMARK    5  A    between atoms: _12  and  _13
REMARK    6  A    between atoms: _15  and  _17
REMARK    7  A    between atoms: _17  and  _18
REMARK    8  A    between atoms: _17  and  _20
REMARK    9  A    between atoms: _20  and  _21
REMARK   10  A    between atoms: _21  and  _22
REMARK   11  A    between atoms: _22  and  _23
REMARK   12  A    between atoms: _32  and  _34
REMARK   13  A    between atoms: _34  and  _35
REMARK   14  A    between atoms: _34  and  _37
REMARK   15  A    between atoms: _37  and  _38
REMARK   16  A    between atoms: _38  and  _39
REMARK   17  A    between atoms: _39  and  _40
REMARK   18  A    between atoms: _49  and  _51
REMARK   19  A    between atoms: _51  and  _52
REMARK   20  A    between atoms: _54  and  _56
REMARK   21  A    between atoms: _56  and  _57
REMARK   22  A    between atoms: _59  and  _61
REMARK   23  A    between atoms: _61  and  _62
REMARK   24  A    between atoms: _61  and  _64
REMARK   25  A    between atoms: _64  and  _65
REMARK   26  A    between atoms: _68  and  _70
REMARK   27  A    between atoms: _70  and  _71
REMARK   28  A    between atoms: _70  and  _73
REMARK   29  A    between atoms: _73  and  _74
REMARK   30  A    between atoms: _84  and  _86
REMARK   31  A    between atoms: _86  and  _87
REMARK   32  A    between atoms: _86  and  _89
REMARK   33  A    between atoms: _89  and  _90
REMARK   34  A    between atoms: _93  and  _95
REMARK   35  A    between atoms: _95  and  _96
REMARK   36  A    between atoms: _95  and  _98
REMARK   37  A    between atoms: _98  and  _99
REMARK   38  A    between atoms: _102  and  _104
REMARK   39  A    between atoms: _104  and  _105
REMARK   40  A    between atoms: _104  and  _107
REMARK   41  A    between atoms: _107  and  _108
REMARK   42  A    between atoms: _112  and  _113
REMARK   43  A    between atoms: _118  and  _120
REMARK   44  A    between atoms: _120  and  _121
REMARK   45  A    between atoms: _120  and  _123
REMARK   46  A    between atoms: _123  and  _124
REMARK   47  A    between atoms: _127  and  _129
REMARK   48  A    between atoms: _129  and  _130
REMARK   49  A    between atoms: _133  and  _135
REMARK   50  A    between atoms: _135  and  _136
REMARK   51  A    between atoms: _135  and  _138
REMARK   52  A    between atoms: _138  and  _139
REMARK   53  A    between atoms: _142  and  _144
REMARK   54  A    between atoms: _144  and  _145
REMARK   55  A    between atoms: _144  and  _147
REMARK   56  A    between atoms: _147  and  _148
REMARK   57  A    between atoms: _151  and  _153
REMARK   58  A    between atoms: _153  and  _154
REMARK   59  A    between atoms: _153  and  _156
REMARK   60  A    between atoms: _156  and  _157
REMARK   61  A    between atoms: _162  and  _164
REMARK   62  A    between atoms: _164  and  _165
REMARK   63  A    between atoms: _168  and  _170
REMARK   64  A    between atoms: _170  and  _171
REMARK   65  A    between atoms: _170  and  _173
REMARK   66  A    between atoms: _173  and  _174
REMARK   67  A    between atoms: _184  and  _186
REMARK   68  A    between atoms: _186  and  _187
REMARK   69  A    between atoms: _186  and  _189
REMARK   70  A    between atoms: _189  and  _190
REMARK   71  A    between atoms: _192  and  _194
REMARK   72  A    between atoms: _194  and  _195
REMARK   73  A    between atoms: _194  and  _197
REMARK   74  A    between atoms: _197  and  _198
REMARK   75  A    between atoms: _201  and  _203
REMARK   76  A    between atoms: _203  and  _204
REMARK   77  A    between atoms: _203  and  _206
REMARK   78  A    between atoms: _208  and  _210
REMARK   79  A    between atoms: _210  and  _211
REMARK   80  A    between atoms: _210  and  _213
REMARK   81  A    between atoms: _213  and  _214
REMARK   82  A    between atoms: _221  and  _222
REMARK   83  A    between atoms: _227  and  _229
REMARK   84  A    between atoms: _229  and  _230
REMARK   85  A    between atoms: _229  and  _232
REMARK   86  A    between atoms: _232  and  _233
REMARK   87  A    between atoms: _243  and  _245
REMARK   88  A    between atoms: _245  and  _246
REMARK   89  A    between atoms: _245  and  _248
REMARK   90  A    between atoms: _251  and  _253
REMARK   91  A    between atoms: _253  and  _254
REMARK   92  A    between atoms: _253  and  _256
REMARK   93  A    between atoms: _256  and  _257
REMARK   94  A    between atoms: _267  and  _269
REMARK   95  A    between atoms: _269  and  _270
REMARK   96  A    between atoms: _272  and  _274
REMARK   97  A    between atoms: _274  and  _275
REMARK   98  A    between atoms: _274  and  _277
REMARK   99  A    between atoms: _277  and  _278
REMARK  100  A    between atoms: _278  and  _279
REMARK  101  A    between atoms: _282  and  _284
REMARK  102  A    between atoms: _284  and  _285
REMARK  103  A    between atoms: _287  and  _289
REMARK  104  A    between atoms: _289  and  _290
REMARK  105  A    between atoms: _293  and  _295
REMARK  106  A    between atoms: _295  and  _296
REMARK  107  A    between atoms: _295  and  _298
REMARK  108  A    between atoms: _298  and  _299
REMARK  109  A    between atoms: _302  and  _304
REMARK  110  A    between atoms: _304  and  _305
REMARK  111  A    between atoms: _304  and  _307
REMARK  112  A    between atoms: _307  and  _308
REMARK  113  A    between atoms: _314  and  _316
REMARK  114  A    between atoms: _316  and  _317
REMARK  115  A    between atoms: _316  and  _319
REMARK  116  A    between atoms: _319  and  _320
REMARK  117  A    between atoms: _325  and  _326
REMARK  118  A    between atoms: _328  and  _330
REMARK  119  A    between atoms: _330  and  _331
REMARK  120  A    between atoms: _330  and  _333
REMARK  121  A    between atoms: _333  and  _334
REMARK  122  A    between atoms: _339  and  _341
REMARK  123  A    between atoms: _341  and  _342
REMARK  124  A    between atoms: _341  and  _344
REMARK  125  A    between atoms: _344  and  _345
REMARK  126  A    between atoms: _351  and  _353
REMARK  127  A    between atoms: _353  and  _354
REMARK  128  A    between atoms: _353  and  _356
REMARK  129  A    between atoms: _356  and  _357
REMARK  130  A    between atoms: _362  and  _364
REMARK  131  A    between atoms: _364  and  _365
REMARK  132  A    between atoms: _364  and  _367
REMARK  133  A    between atoms: _367  and  _368
REMARK  134  A    between atoms: _368  and  _369
REMARK  135  A    between atoms: _374  and  _376
REMARK  136  A    between atoms: _376  and  _377
REMARK  137  A    between atoms: _376  and  _379
REMARK  138  A    between atoms: _379  and  _380
REMARK  139  A    between atoms: _380  and  _381
REMARK  140  A    between atoms: _384  and  _386
REMARK  141  A    between atoms: _386  and  _387
REMARK  142  A    between atoms: _386  and  _389
REMARK  143  A    between atoms: _389  and  _390
REMARK  144  A    between atoms: _390  and  _391
REMARK  145  A    between atoms: _393  and  _395
REMARK  146  A    between atoms: _395  and  _396
REMARK  147  A    between atoms: _395  and  _398
REMARK  148  A    between atoms: _398  and  _399
REMARK  149  A    between atoms: _399  and  _400
REMARK  150  A    between atoms: _405  and  _407
REMARK  151  A    between atoms: _407  and  _408
REMARK  152  A    between atoms: _407  and  _410
REMARK  153  A    between atoms: _410  and  _411
REMARK  154  A    between atoms: _414  and  _416
REMARK  155  A    between atoms: _416  and  _417
REMARK  156  A    between atoms: _416  and  _419
REMARK  157  A    between atoms: _422  and  _424
REMARK  158  A    between atoms: _424  and  _425
REMARK  159  A    between atoms: _424  and  _427
REMARK  160  A    between atoms: _427  and  _428
REMARK  161  A    between atoms: _428  and  _429
REMARK  162  A    between atoms: _429  and  _430
REMARK  163  A    between atoms: _439  and  _441
REMARK  164  A    between atoms: _441  and  _442
REMARK  165  A    between atoms: _441  and  _444
REMARK  166  A    between atoms: _444  and  _445
REMARK  167  A    between atoms: _449  and  _450
REMARK                            x       y       z     vdW  Elec       q    Type
REMARK                         _______ _______ _______ _____ _____    ______ ____
ROOT
ATOM      1  O   HOH     1      45.297   2.639  90.175  0.00  0.00    +0.000 OA
ENDROOT
TORSDOF 0
REMARK  Name = ../refined-set-2016/3jup/3jup_pocket.pdb
REMARK  167 active torsions:
REMARK  status: ('A' for Active; 'I' for Inactive)
REMARK    1  A    between atoms: _1  and  _3
REMARK    2  A    between atoms: _3  and  _4
REMARK    3  A    between atoms: _3  and  _6
REMARK    4  A    between atoms: _6  and  _7
REMARK    5  A    between atoms: _12  and  _13
REMARK    6  A    between atoms: _15  and  _17
REMARK    7  A    between atoms: _17  and  _18
REMARK    8  A    between atoms: _17  and  _20
REMARK    9  A    between atoms: _20  and  _21
REMARK   10  A    between atoms: _21  and  _22
REMARK   11  A    between atoms: _22  and  _23
REMARK   12  A    between atoms: _32  and  _34
REMARK   13  A    between atoms: _34  and  _35
REMARK   14  A    between atoms: _34  and  _37
REMARK   15  A    between atoms: _37  and  _38
REMARK   16  A    between atoms: _38  and  _39
REMARK   17  A    between atoms: _39  and  _40
REMARK   18  A    between atoms: _49  and  _51
REMARK   19  A    between atoms: _51  and  _52
REMARK   20  A    between atoms: _54  and  _56
REMARK   21  A    between atoms: _56  and  _57
REMARK   22  A    between atoms: _59  and  _61
REMARK   23  A    between atoms: _61  and  _62
REMARK   24  A    between atoms: _61  and  _64
REMARK   25  A    between atoms: _64  and  _65
REMARK   26  A    between atoms: _68  and  _70
REMARK   27  A    between atoms: _70  and  _71
REMARK   28  A    between atoms: _70  and  _73
REMARK   29  A    between atoms: _73  and  _74
REMARK   30  A    between atoms: _84  and  _86
REMARK   31  A    between atoms: _86  and  _87
REMARK   32  A    between atoms: _86  and  _89
REMARK   33  A    between atoms: _89  and  _90
REMARK   34  A    between atoms: _93  and  _95
REMARK   35  A    between atoms: _95  and  _96
REMARK   36  A    between atoms: _95  and  _98
REMARK   37  A    between atoms: _98  and  _99
REMARK   38  A    between atoms: _102  and  _104
REMARK   39  A    between atoms: _104  and  _105
REMARK   40  A    between atoms: _104  and  _107
REMARK   41  A    between atoms: _107  and  _108
REMARK   42  A    between atoms: _112  and  _113
REMARK   43  A    between atoms: _118  and  _120
REMARK   44  A    between atoms: _120  and  _121
REMARK   45  A    between atoms: _120  and  _123
REMARK   46  A    between atoms: _123  and  _124
REMARK   47  A    between atoms: _127  and  _129
REMARK   48  A    between atoms: _129  and  _130
REMARK   49  A    between atoms: _133  and  _135
REMARK   50  A    between atoms: _135  and  _136
REMARK   51  A    between atoms: _135  and  _138
REMARK   52  A    between atoms: _138  and  _139
REMARK   53  A    between atoms: _142  and  _144
REMARK   54  A    between atoms: _144  and  _145
REMARK   55  A    between atoms: _144  and  _147
REMARK   56  A    between atoms: _147  and  _148
REMARK   57  A    between atoms: _151  and  _153
REMARK   58  A    between atoms: _153  and  _154
REMARK   59  A    between atoms: _153  and  _156
REMARK   60  A    between atoms: _156  and  _157
REMARK   61  A    between atoms: _162  and  _164
REMARK   62  A    between atoms: _164  and  _165
REMARK   63  A    between atoms: _168  and  _170
REMARK   64  A    between atoms: _170  and  _171
REMARK   65  A    between atoms: _170  and  _173
REMARK   66  A    between atoms: _173  and  _174
REMARK   67  A    between atoms: _184  and  _186
REMARK   68  A    between atoms: _186  and  _187
REMARK   69  A    between atoms: _186  and  _189
REMARK   70  A    between atoms: _189  and  _190
REMARK   71  A    between atoms: _192  and  _194
REMARK   72  A    between atoms: _194  and  _195
REMARK   73  A    between atoms: _194  and  _197
REMARK   74  A    between atoms: _197  and  _198
REMARK   75  A    between atoms: _201  and  _203
REMARK   76  A    between atoms: _203  and  _204
REMARK   77  A    between atoms: _203  and  _206
REMARK   78  A    between atoms: _208  and  _210
REMARK   79  A    between atoms: _210  and  _211
REMARK   80  A    between atoms: _210  and  _213
REMARK   81  A    between atoms: _213  and  _214
REMARK   82  A    between atoms: _221  and  _222
REMARK   83  A    between atoms: _227  and  _229
REMARK   84  A    between atoms: _229  and  _230
REMARK   85  A    between atoms: _229  and  _232
REMARK   86  A    between atoms: _232  and  _233
REMARK   87  A    between atoms: _243  and  _245
REMARK   88  A    between atoms: _245  and  _246
REMARK   89  A    between atoms: _245  and  _248
REMARK   90  A    between atoms: _251  and  _253
REMARK   91  A    between atoms: _253  and  _254
REMARK   92  A    between atoms: _253  and  _256
REMARK   93  A    between atoms: _256  and  _257
REMARK   94  A    between atoms: _267  and  _269
REMARK   95  A    between atoms: _269  and  _270
REMARK   96  A    between atoms: _272  and  _274
REMARK   97  A    between atoms: _274  and  _275
REMARK   98  A    between atoms: _274  and  _277
REMARK   99  A    between atoms: _277  and  _278
REMARK  100  A    between atoms: _278  and  _279
REMARK  101  A    between atoms: _282  and  _284
REMARK  102  A    between atoms: _284  and  _285
REMARK  103  A    between atoms: _287  and  _289
REMARK  104  A    between atoms: _289  and  _290
REMARK  105  A    between atoms: _293  and  _295
REMARK  106  A    between atoms: _295  and  _296
REMARK  107  A    between atoms: _295  and  _298
REMARK  108  A    between atoms: _298  and  _299
REMARK  109  A    between atoms: _302  and  _304
REMARK  110  A    between atoms: _304  and  _305
REMARK  111  A    between atoms: _304  and  _307
REMARK  112  A    between atoms: _307  and  _308
REMARK  113  A    between atoms: _314  and  _316
REMARK  114  A    between atoms: _316  and  _317
REMARK  115  A    between atoms: _316  and  _319
REMARK  116  A    between atoms: _319  and  _320
REMARK  117  A    between atoms: _325  and  _326
REMARK  118  A    between atoms: _328  and  _330
REMARK  119  A    between atoms: _330  and  _331
REMARK  120  A    between atoms: _330  and  _333
REMARK  121  A    between atoms: _333  and  _334
REMARK  122  A    between atoms: _339  and  _341
REMARK  123  A    between atoms: _341  and  _342
REMARK  124  A    between atoms: _341  and  _344
REMARK  125  A    between atoms: _344  and  _345
REMARK  126  A    between atoms: _351  and  _353
REMARK  127  A    between atoms: _353  and  _354
REMARK  128  A    between atoms: _353  and  _356
REMARK  129  A    between atoms: _356  and  _357
REMARK  130  A    between atoms: _362  and  _364
REMARK  131  A    between atoms: _364  and  _365
REMARK  132  A    between atoms: _364  and  _367
REMARK  133  A    between atoms: _367  and  _368
REMARK  134  A    between atoms: _368  and  _369
REMARK  135  A    between atoms: _374  and  _376
REMARK  136  A    between atoms: _376  and  _377
REMARK  137  A    between atoms: _376  and  _379
REMARK  138  A    between atoms: _379  and  _380
REMARK  139  A    between atoms: _380  and  _381
REMARK  140  A    between atoms: _384  and  _386
REMARK  141  A    between atoms: _386  and  _387
REMARK  142  A    between atoms: _386  and  _389
REMARK  143  A    between atoms: _389  and  _390
REMARK  144  A    between atoms: _390  and  _391
REMARK  145  A    between atoms: _393  and  _395
REMARK  146  A    between atoms: _395  and  _396
REMARK  147  A    between atoms: _395  and  _398
REMARK  148  A    between atoms: _398  and  _399
REMARK  149  A    between atoms: _399  and  _400
REMARK  150  A    between atoms: _405  and  _407
REMARK  151  A    between atoms: _407  and  _408
REMARK  152  A    between atoms: _407  and  _410
REMARK  153  A    between atoms: _410  and  _411
REMARK  154  A    between atoms: _414  and  _416
REMARK  155  A    between atoms: _416  and  _417
REMARK  156  A    between atoms: _416  and  _419
REMARK  157  A    between atoms: _422  and  _424
REMARK  158  A    between atoms: _424  and  _425
REMARK  159  A    between atoms: _424  and  _427
REMARK  160  A    between atoms: _427  and  _428
REMARK  161  A    between atoms: _428  and  _429
REMARK  162  A    between atoms: _429  and  _430
REMARK  163  A    between atoms: _439  and  _441
REMARK  164  A    between atoms: _441  and  _442
REMARK  165  A    between atoms: _441  and  _444
REMARK  166  A    between atoms: _444  and  _445
REMARK  167  A    between atoms: _449  and  _450
REMARK                            x       y       z     vdW  Elec       q    Type
REMARK                         _______ _______ _______ _____ _____    ______ ____
ROOT
ATOM      1  O   HOH     1      45.863   0.903  92.038  0.00  0.00    +0.000 OA
ENDROOT
TORSDOF 0
REMARK  Name = ../refined-set-2016/3jup/3jup_pocket.pdb
REMARK  167 active torsions:
REMARK  status: ('A' for Active; 'I' for Inactive)
REMARK    1  A    between atoms: _1  and  _3
REMARK    2  A    between atoms: _3  and  _4
REMARK    3  A    between atoms: _3  and  _6
REMARK    4  A    between atoms: _6  and  _7
REMARK    5  A    between atoms: _12  and  _13
REMARK    6  A    between atoms: _15  and  _17
REMARK    7  A    between atoms: _17  and  _18
REMARK    8  A    between atoms: _17  and  _20
REMARK    9  A    between atoms: _20  and  _21
REMARK   10  A    between atoms: _21  and  _22
REMARK   11  A    between atoms: _22  and  _23
REMARK   12  A    between atoms: _32  and  _34
REMARK   13  A    between atoms: _34  and  _35
REMARK   14  A    between atoms: _34  and  _37
REMARK   15  A    between atoms: _37  and  _38
REMARK   16  A    between atoms: _38  and  _39
REMARK   17  A    between atoms: _39  and  _40
REMARK   18  A    between atoms: _49  and  _51
REMARK   19  A    between atoms: _51  and  _52
REMARK   20  A    between atoms: _54  and  _56
REMARK   21  A    between atoms: _56  and  _57
REMARK   22  A    between atoms: _59  and  _61
REMARK   23  A    between atoms: _61  and  _62
REMARK   24  A    between atoms: _61  and  _64
REMARK   25  A    between atoms: _64  and  _65
REMARK   26  A    between atoms: _68  and  _70
REMARK   27  A    between atoms: _70  and  _71
REMARK   28  A    between atoms: _70  and  _73
REMARK   29  A    between atoms: _73  and  _74
REMARK   30  A    between atoms: _84  and  _86
REMARK   31  A    between atoms: _86  and  _87
REMARK   32  A    between atoms: _86  and  _89
REMARK   33  A    between atoms: _89  and  _90
REMARK   34  A    between atoms: _93  and  _95
REMARK   35  A    between atoms: _95  and  _96
REMARK   36  A    between atoms: _95  and  _98
REMARK   37  A    between atoms: _98  and  _99
REMARK   38  A    between atoms: _102  and  _104
REMARK   39  A    between atoms: _104  and  _105
REMARK   40  A    between atoms: _104  and  _107
REMARK   41  A    between atoms: _107  and  _108
REMARK   42  A    between atoms: _112  and  _113
REMARK   43  A    between atoms: _118  and  _120
REMARK   44  A    between atoms: _120  and  _121
REMARK   45  A    between atoms: _120  and  _123
REMARK   46  A    between atoms: _123  and  _124
REMARK   47  A    between atoms: _127  and  _129
REMARK   48  A    between atoms: _129  and  _130
REMARK   49  A    between atoms: _133  and  _135
REMARK   50  A    between atoms: _135  and  _136
REMARK   51  A    between atoms: _135  and  _138
REMARK   52  A    between atoms: _138  and  _139
REMARK   53  A    between atoms: _142  and  _144
REMARK   54  A    between atoms: _144  and  _145
REMARK   55  A    between atoms: _144  and  _147
REMARK   56  A    between atoms: _147  and  _148
REMARK   57  A    between atoms: _151  and  _153
REMARK   58  A    between atoms: _153  and  _154
REMARK   59  A    between atoms: _153  and  _156
REMARK   60  A    between atoms: _156  and  _157
REMARK   61  A    between atoms: _162  and  _164
REMARK   62  A    between atoms: _164  and  _165
REMARK   63  A    between atoms: _168  and  _170
REMARK   64  A    between atoms: _170  and  _171
REMARK   65  A    between atoms: _170  and  _173
REMARK   66  A    between atoms: _173  and  _174
REMARK   67  A    between atoms: _184  and  _186
REMARK   68  A    between atoms: _186  and  _187
REMARK   69  A    between atoms: _186  and  _189
REMARK   70  A    between atoms: _189  and  _190
REMARK   71  A    between atoms: _192  and  _194
REMARK   72  A    between atoms: _194  and  _195
REMARK   73  A    between atoms: _194  and  _197
REMARK   74  A    between atoms: _197  and  _198
REMARK   75  A    between atoms: _201  and  _203
REMARK   76  A    between atoms: _203  and  _204
REMARK   77  A    between atoms: _203  and  _206
REMARK   78  A    between atoms: _208  and  _210
REMARK   79  A    between atoms: _210  and  _211
REMARK   80  A    between atoms: _210  and  _213
REMARK   81  A    between atoms: _213  and  _214
REMARK   82  A    between atoms: _221  and  _222
REMARK   83  A    between atoms: _227  and  _229
REMARK   84  A    between atoms: _229  and  _230
REMARK   85  A    between atoms: _229  and  _232
REMARK   86  A    between atoms: _232  and  _233
REMARK   87  A    between atoms: _243  and  _245
REMARK   88  A    between atoms: _245  and  _246
REMARK   89  A    between atoms: _245  and  _248
REMARK   90  A    between atoms: _251  and  _253
REMARK   91  A    between atoms: _253  and  _254
REMARK   92  A    between atoms: _253  and  _256
REMARK   93  A    between atoms: _256  and  _257
REMARK   94  A    between atoms: _267  and  _269
REMARK   95  A    between atoms: _269  and  _270
REMARK   96  A    between atoms: _272  and  _274
REMARK   97  A    between atoms: _274  and  _275
REMARK   98  A    between atoms: _274  and  _277
REMARK   99  A    between atoms: _277  and  _278
REMARK  100  A    between atoms: _278  and  _279
REMARK  101  A    between atoms: _282  and  _284
REMARK  102  A    between atoms: _284  and  _285
REMARK  103  A    between atoms: _287  and  _289
REMARK  104  A    between atoms: _289  and  _290
REMARK  105  A    between atoms: _293  and  _295
REMARK  106  A    between atoms: _295  and  _296
REMARK  107  A    between atoms: _295  and  _298
REMARK  108  A    between atoms: _298  and  _299
REMARK  109  A    between atoms: _302  and  _304
REMARK  110  A    between atoms: _304  and  _305
REMARK  111  A    between atoms: _304  and  _307
REMARK  112  A    between atoms: _307  and  _308
REMARK  113  A    between atoms: _314  and  _316
REMARK  114  A    between atoms: _316  and  _317
REMARK  115  A    between atoms: _316  and  _319
REMARK  116  A    between atoms: _319  and  _320
REMARK  117  A    between atoms: _325  and  _326
REMARK  118  A    between atoms: _328  and  _330
REMARK  119  A    between atoms: _330  and  _331
REMARK  120  A    between atoms: _330  and  _333
REMARK  121  A    between atoms: _333  and  _334
REMARK  122  A    between atoms: _339  and  _341
REMARK  123  A    between atoms: _341  and  _342
REMARK  124  A    between atoms: _341  and  _344
REMARK  125  A    between atoms: _344  and  _345
REMARK  126  A    between atoms: _351  and  _353
REMARK  127  A    between atoms: _353  and  _354
REMARK  128  A    between atoms: _353  and  _356
REMARK  129  A    between atoms: _356  and  _357
REMARK  130  A    between atoms: _362  and  _364
REMARK  131  A    between atoms: _364  and  _365
REMARK  132  A    between atoms: _364  and  _367
REMARK  133  A    between atoms: _367  and  _368
REMARK  134  A    between atoms: _368  and  _369
REMARK  135  A    between atoms: _374  and  _376
REMARK  136  A    between atoms: _376  and  _377
REMARK  137  A    between atoms: _376  and  _379
REMARK  138  A    between atoms: _379  and  _380
REMARK  139  A    between atoms: _380  and  _381
REMARK  140  A    between atoms: _384  and  _386
REMARK  141  A    between atoms: _386  and  _387
REMARK  142  A    between atoms: _386  and  _389
REMARK  143  A    between atoms: _389  and  _390
REMARK  144  A    between atoms: _390  and  _391
REMARK  145  A    between atoms: _393  and  _395
REMARK  146  A    between atoms: _395  and  _396
REMARK  147  A    between atoms: _395  and  _398
REMARK  148  A    between atoms: _398  and  _399
REMARK  149  A    between atoms: _399  and  _400
REMARK  150  A    between atoms: _405  and  _407
REMARK  151  A    between atoms: _407  and  _408
REMARK  152  A    between atoms: _407  and  _410
REMARK  153  A    between atoms: _410  and  _411
REMARK  154  A    between atoms: _414  and  _416
REMARK  155  A    between atoms: _416  and  _417
REMARK  156  A    between atoms: _416  and  _419
REMARK  157  A    between atoms: _422  and  _424
REMARK  158  A    between atoms: _424  and  _425
REMARK  159  A    between atoms: _424  and  _427
REMARK  160  A    between atoms: _427  and  _428
REMARK  161  A    between atoms: _428  and  _429
REMARK  162  A    between atoms: _429  and  _430
REMARK  163  A    between atoms: _439  and  _441
REMARK  164  A    between atoms: _441  and  _442
REMARK  165  A    between atoms: _441  and  _444
REMARK  166  A    between atoms: _444  and  _445
REMARK  167  A    between atoms: _449  and  _450
REMARK                            x       y       z     vdW  Elec       q    Type
REMARK                         _______ _______ _______ _____ _____    ______ ____
ROOT
ATOM      1  O   HOH     1      45.942  10.312  97.844  0.00  0.00    +0.000 OA
ENDROOT
TORSDOF 0
