REMARK  Name = ../refined-set-2016/4xya/4xya_pocket.pdb
REMARK  133 active torsions:
REMARK  status: ('A' for Active; 'I' for Inactive)
REMARK    1  A    between atoms: _1  and  _3
REMARK    2  A    between atoms: _3  and  _4
REMARK    3  A    between atoms: _7  and  _9
REMARK    4  A    between atoms: _9  and  _10
REMARK    5  A    between atoms: _9  and  _12
REMARK    6  A    between atoms: _12  and  _13
REMARK    7  A    between atoms: _24  and  _25
REMARK    8  A    between atoms: _30  and  _32
REMARK    9  A    between atoms: _32  and  _33
REMARK   10  A    between atoms: _32  and  _35
REMARK   11  A    between atoms: _35  and  _36
REMARK   12  A    between atoms: _42  and  _44
REMARK   13  A    between atoms: _44  and  _45
REMARK   14  A    between atoms: _44  and  _47
REMARK   15  A    between atoms: _47  and  _48
REMARK   16  A    between atoms: _48  and  _49
REMARK   17  A    between atoms: _54  and  _56
REMARK   18  A    between atoms: _56  and  _57
REMARK   19  A    between atoms: _56  and  _59
REMARK   20  A    between atoms: _59  and  _60
REMARK   21  A    between atoms: _60  and  _61
REMARK   22  A    between atoms: _67  and  _68
REMARK   23  A    between atoms: _73  and  _75
REMARK   24  A    between atoms: _75  and  _76
REMARK   25  A    between atoms: _75  and  _78
REMARK   26  A    between atoms: _81  and  _83
REMARK   27  A    between atoms: _83  and  _84
REMARK   28  A    between atoms: _83  and  _86
REMARK   29  A    between atoms: _86  and  _87
REMARK   30  A    between atoms: _90  and  _92
REMARK   31  A    between atoms: _92  and  _93
REMARK   32  A    between atoms: _96  and  _98
REMARK   33  A    between atoms: _98  and  _99
REMARK   34  A    between atoms: _98  and  _101
REMARK   35  A    between atoms: _101  and  _102
REMARK   36  A    between atoms: _102  and  _103
REMARK   37  A    between atoms: _103  and  _104
REMARK   38  A    between atoms: _104  and  _105
REMARK   39  A    between atoms: _109  and  _111
REMARK   40  A    between atoms: _111  and  _112
REMARK   41  A    between atoms: _111  and  _114
REMARK   42  A    between atoms: _114  and  _115
REMARK   43  A    between atoms: _118  and  _120
REMARK   44  A    between atoms: _120  and  _121
REMARK   45  A    between atoms: _120  and  _123
REMARK   46  A    between atoms: _123  and  _124
REMARK   47  A    between atoms: _129  and  _131
REMARK   48  A    between atoms: _131  and  _132
REMARK   49  A    between atoms: _131  and  _134
REMARK   50  A    between atoms: _134  and  _135
REMARK   51  A    between atoms: _138  and  _140
REMARK   52  A    between atoms: _140  and  _141
REMARK   53  A    between atoms: _140  and  _143
REMARK   54  A    between atoms: _143  and  _144
REMARK   55  A    between atoms: _149  and  _150
REMARK   56  A    between atoms: _152  and  _154
REMARK   57  A    between atoms: _154  and  _155
REMARK   58  A    between atoms: _154  and  _157
REMARK   59  A    between atoms: _157  and  _158
REMARK   60  A    between atoms: _163  and  _164
REMARK   61  A    between atoms: _166  and  _168
REMARK   62  A    between atoms: _168  and  _169
REMARK   63  A    between atoms: _168  and  _171
REMARK   64  A    between atoms: _171  and  _172
REMARK   65  A    between atoms: _175  and  _177
REMARK   66  A    between atoms: _177  and  _178
REMARK   67  A    between atoms: _177  and  _180
REMARK   68  A    between atoms: _180  and  _181
REMARK   69  A    between atoms: _181  and  _182
REMARK   70  A    between atoms: _184  and  _186
REMARK   71  A    between atoms: _186  and  _187
REMARK   72  A    between atoms: _186  and  _189
REMARK   73  A    between atoms: _189  and  _190
REMARK   74  A    between atoms: _193  and  _195
REMARK   75  A    between atoms: _195  and  _196
REMARK   76  A    between atoms: _195  and  _198
REMARK   77  A    between atoms: _198  and  _199
REMARK   78  A    between atoms: _199  and  _200
REMARK   79  A    between atoms: _202  and  _204
REMARK   80  A    between atoms: _204  and  _205
REMARK   81  A    between atoms: _204  and  _207
REMARK   82  A    between atoms: _207  and  _208
REMARK   83  A    between atoms: _208  and  _209
REMARK   84  A    between atoms: _211  and  _213
REMARK   85  A    between atoms: _213  and  _214
REMARK   86  A    between atoms: _213  and  _216
REMARK   87  A    between atoms: _216  and  _217
REMARK   88  A    between atoms: _223  and  _225
REMARK   89  A    between atoms: _225  and  _226
REMARK   90  A    between atoms: _225  and  _228
REMARK   91  A    between atoms: _228  and  _229
REMARK   92  A    between atoms: _234  and  _236
REMARK   93  A    between atoms: _236  and  _237
REMARK   94  A    between atoms: _236  and  _239
REMARK   95  A    between atoms: _241  and  _243
REMARK   96  A    between atoms: _243  and  _244
REMARK   97  A    between atoms: _243  and  _246
REMARK   98  A    between atoms: _246  and  _247
REMARK   99  A    between atoms: _252  and  _253
REMARK  100  A    between atoms: _255  and  _257
REMARK  101  A    between atoms: _257  and  _258
REMARK  102  A    between atoms: _257  and  _260
REMARK  103  A    between atoms: _260  and  _261
REMARK  104  A    between atoms: _266  and  _267
REMARK  105  A    between atoms: _269  and  _271
REMARK  106  A    between atoms: _271  and  _272
REMARK  107  A    between atoms: _271  and  _274
REMARK  108  A    between atoms: _274  and  _275
REMARK  109  A    between atoms: _280  and  _282
REMARK  110  A    between atoms: _282  and  _283
REMARK  111  A    between atoms: _282  and  _285
REMARK  112  A    between atoms: _285  and  _286
REMARK  113  A    between atoms: _286  and  _287
REMARK  114  A    between atoms: _287  and  _288
REMARK  115  A    between atoms: _288  and  _289
REMARK  116  A    between atoms: _293  and  _295
REMARK  117  A    between atoms: _295  and  _296
REMARK  118  A    between atoms: _295  and  _298
REMARK  119  A    between atoms: _298  and  _299
REMARK  120  A    between atoms: _302  and  _304
REMARK  121  A    between atoms: _304  and  _305
REMARK  122  A    between atoms: _304  and  _307
REMARK  123  A    between atoms: _307  and  _308
REMARK  124  A    between atoms: _311  and  _313
REMARK  125  A    between atoms: _313  and  _314
REMARK  126  A    between atoms: _313  and  _316
REMARK  127  A    between atoms: _319  and  _321
REMARK  128  A    between atoms: _321  and  _322
REMARK  129  A    between atoms: _321  and  _324
REMARK  130  A    between atoms: _324  and  _325
REMARK  131  A    between atoms: _325  and  _326
REMARK  132  A    between atoms: _328  and  _330
REMARK  133  A    between atoms: _330  and  _331
REMARK                            x       y       z     vdW  Elec       q    Type
REMARK                         _______ _______ _______ _____ _____    ______ ____
ROOT
ATOM      1  CA  GLN A   5     -12.970  20.666   6.475  0.00  0.00    +0.149 C 
ENDROOT
BRANCH   1   2
ATOM      2  C   GLN A   5     -12.677  19.602   7.526  0.00  0.00    +0.241 C 
ATOM      3  O   GLN A   5     -13.297  19.643   8.536  0.00  0.00    -0.273 OA
ATOM      4  N   GLN A   6     -11.761  18.671   7.268  0.00  0.00    -0.297 N 
ATOM      5  H   GLN A   6     -11.293  18.676   6.339  0.00  0.00    +0.150 HD
BRANCH   4   6
ATOM      6  CA  GLN A   6     -11.385  17.642   8.236  0.00  0.00    +0.149 C 
BRANCH   6   7
ATOM      7  C   GLN A   6      -9.927  17.256   7.968  0.00  0.00    +0.244 C 
ATOM      8  N   PRO A   7      -9.258  16.645   8.956  0.00  0.00    -0.272 N 
ATOM      9  CD  PRO A   7      -9.698  16.509  10.368  0.00  0.00    +0.094 C 
ATOM     10  CG  PRO A   7      -8.444  15.997  11.079  0.00  0.00    +0.024 C 
ATOM     11  CB  PRO A   7      -7.629  15.316  10.050  0.00  0.00    +0.031 C 
ATOM     12  CA  PRO A   7      -7.926  16.086   8.738  0.00  0.00    +0.152 C 
ATOM     13  O   GLN A   6      -9.418  17.575   6.943  0.00  0.00    -0.273 OA
BRANCH  12  14
ATOM     14  C   PRO A   7      -7.926  15.140   7.537  0.00  0.00    +0.241 C 
ATOM     15  O   PRO A   7      -8.874  14.428   7.308  0.00  0.00    -0.273 OA
ATOM     16  N   VAL A   8      -6.843  15.192   6.763  0.00  0.00    -0.297 N 
ATOM     17  H   VAL A   8      -6.148  15.950   6.918  0.00  0.00    +0.150 HD
BRANCH  16  18
ATOM     18  CA  VAL A   8      -6.607  14.239   5.728  0.00  0.00    +0.149 C 
BRANCH  18  19
ATOM     19  C   VAL A   8      -6.626  12.803   6.308  0.00  0.00    +0.241 C 
ATOM     20  O   VAL A   8      -5.881  12.506   7.249  0.00  0.00    -0.273 OA
ATOM     21  N   ASP A   9      -7.539  11.977   5.802  0.00  0.00    -0.297 N 
ATOM     22  H   ASP A   9      -8.283  12.363   5.186  0.00  0.00    +0.150 HD
BRANCH  21  23
ATOM     23  CA  ASP A   9      -7.527  10.567   6.083  0.00  0.00    +0.160 C 
BRANCH  23  24
ATOM     24  C   ASP A   9      -6.700   9.826   5.033  0.00  0.00    +0.241 C 
ATOM     25  N   ALA A  10      -5.456   9.519   5.381  0.00  0.00    -0.298 N 
ATOM     26  H   ALA A  10      -5.149   9.730   6.352  0.00  0.00    +0.150 HD
ATOM     27  O   ASP A   9      -7.199   9.487   3.986  0.00  0.00    -0.273 OA
BRANCH  25  28
ATOM     28  CA  ALA A  10      -4.486   8.894   4.461  0.00  0.00    +0.137 C 
ATOM     29  CB  ALA A  10      -3.093   8.892   5.098  0.00  0.00    +0.030 C 
BRANCH  28  30
ATOM     30  C   ALA A  10      -4.876   7.480   4.018  0.00  0.00    +0.227 C 
ATOM     31  O   ALA A  10      -4.427   7.008   2.966  0.00  0.00    -0.286 OA
ENDBRANCH  28  30
ENDBRANCH  25  28
ENDBRANCH  23  24
BRANCH  23  32
ATOM     32  CB  ASP A   9      -8.946  10.022   6.146  0.00  0.00    +0.143 C 
BRANCH  32  33
ATOM     33  CG  ASP A   9      -8.989   8.543   6.510  0.00  0.00    +0.367 C 
ATOM     34  OD2 ASP A   9     -10.074   8.093   6.857  0.00  0.00    -0.246 OA
ATOM     35  OD1 ASP A   9      -7.966   7.801   6.401  0.00  0.00    -0.246 OA
ENDBRANCH  32  33
ENDBRANCH  23  32
ENDBRANCH  21  23
ENDBRANCH  18  19
BRANCH  18  36
ATOM     36  CB  VAL A   8      -5.286  14.524   5.034  0.00  0.00    +0.027 C 
ATOM     37  CG2 VAL A   8      -5.357  15.864   4.308  0.00  0.00    +0.002 C 
ATOM     38  CG1 VAL A   8      -4.970  13.377   4.101  0.00  0.00    +0.002 C 
ENDBRANCH  18  36
ENDBRANCH  16  18
ENDBRANCH  12  14
ENDBRANCH   6   7
BRANCH   6  39
ATOM     39  CB  GLN A   6     -12.277  16.393   8.101  0.00  0.00    +0.039 C 
BRANCH  39  40
ATOM     40  CG  GLN A   6     -12.232  15.838   6.708  0.00  0.00    +0.087 C 
BRANCH  40  41
ATOM     41  CD  GLN A   6     -13.007  14.568   6.579  0.00  0.00    +0.219 C 
ATOM     42  OE1 GLN A   6     -12.724  13.585   7.259  0.00  0.00    -0.275 OA
ATOM     43  NE2 GLN A   6     -13.984  14.568   5.705  0.00  0.00    -0.329 N 
ATOM     44 HE21 GLN A   6     -14.556  13.711   5.565  0.00  0.00    +0.145 HD
ATOM     45 HE22 GLN A   6     -14.187  15.425   5.152  0.00  0.00    +0.145 HD
ENDBRANCH  40  41
ENDBRANCH  39  40
ENDBRANCH   6  39
ENDBRANCH   4   6
ENDBRANCH   1   2
BRANCH   1  48
ATOM     46  C   PHE A   4     -10.951  21.311   5.269  0.00  0.00    +0.241 C 
ATOM     47  O   PHE A   4     -10.487  21.946   6.214  0.00  0.00    -0.273 OA
ATOM     48  N   GLN A   5     -12.119  20.668   5.303  0.00  0.00    -0.297 N 
ATOM     49  H   GLN A   5     -12.430  20.149   4.457  0.00  0.00    +0.150 HD
BRANCH  46  50
ATOM     50  CA  PHE A   4     -10.165  21.245   3.973  0.00  0.00    +0.153 C 
BRANCH  50  53
ATOM     51  C   PRO A   3     -10.450  19.389   2.406  0.00  0.00    +0.241 C 
ATOM     52  O   PRO A   3      -9.567  18.677   2.904  0.00  0.00    -0.273 OA
ATOM     53  N   PHE A   4     -10.803  20.597   2.875  0.00  0.00    -0.297 N 
ATOM     54  H   PHE A   4     -11.591  21.090   2.408  0.00  0.00    +0.150 HD
BRANCH  51  58
ATOM     55  C   TRP A   2     -13.445  19.638   1.735  0.00  0.00    +0.244 C 
ATOM     56  O   TRP A   2     -13.386  18.965   2.716  0.00  0.00    -0.273 OA
ATOM     57  N   PRO A   3     -12.408  19.680   0.840  0.00  0.00    -0.272 N 
ATOM     58  CA  PRO A   3     -11.222  18.874   1.185  0.00  0.00    +0.152 C 
ATOM     59  CB  PRO A   3     -10.338  18.969  -0.079  0.00  0.00    +0.031 C 
ATOM     60  CG  PRO A   3     -11.261  19.517  -1.156  0.00  0.00    +0.024 C 
ATOM     61  CD  PRO A   3     -12.192  20.425  -0.411  0.00  0.00    +0.094 C 
BRANCH  55  62
ATOM     62  CA  TRP A   2     -14.728  20.474   1.486  0.00  0.00    +0.153 C 
BRANCH  62  65
ATOM     63  C   ALA A   1     -13.770  22.696   1.613  0.00  0.00    +0.238 C 
ATOM     64  O   ALA A   1     -13.000  22.372   2.489  0.00  0.00    -0.274 OA
ATOM     65  N   TRP A   2     -14.545  21.826   0.987  0.00  0.00    -0.297 N 
ATOM     66  H   TRP A   2     -15.035  22.117   0.117  0.00  0.00    +0.150 HD
BRANCH  63  67
ATOM     67  CA  ALA A   1     -13.896  24.140   1.201  0.00  0.00    +0.145 C 
ATOM     68  CB  ALA A   1     -14.878  24.863   2.134  0.00  0.00    +0.028 C 
BRANCH  67  69
ATOM     69  N   ALA A   1     -14.287  24.295  -0.201  0.00  0.00    -0.238 NA
ATOM     70  H   ALA A   1     -15.268  24.546  -0.438  0.00  0.00    +0.142 HD
ENDBRANCH  67  69
ENDBRANCH  63  67
ENDBRANCH  62  65
BRANCH  62  71
ATOM     71  CB  TRP A   2     -15.819  19.699   0.654  0.00  0.00    +0.057 C 
BRANCH  71  72
ATOM     72  CG  TRP A   2     -15.523  19.554  -0.819  0.00  0.00    -0.002 A 
ATOM     73  CD2 TRP A   2     -14.824  18.481  -1.445  0.00  0.00    +0.013 A 
ATOM     74  CE3 TRP A   2     -14.241  17.284  -0.972  0.00  0.00    +0.001 A 
ATOM     75  CZ3 TRP A   2     -13.583  16.481  -1.877  0.00  0.00    +0.000 A 
ATOM     76  CH2 TRP A   2     -13.535  16.801  -3.234  0.00  0.00    +0.001 A 
ATOM     77  CZ2 TRP A   2     -14.131  17.937  -3.721  0.00  0.00    +0.017 A 
ATOM     78  CE2 TRP A   2     -14.757  18.770  -2.823  0.00  0.00    +0.056 A 
ATOM     79  NE1 TRP A   2     -15.370  19.976  -3.025  0.00  0.00    -0.352 N 
ATOM     80  HE1 TRP A   2     -15.452  20.471  -3.936  0.00  0.00    +0.166 HD
ATOM     81  CD1 TRP A   2     -15.860  20.423  -1.818  0.00  0.00    +0.068 A 
ENDBRANCH  71  72
ENDBRANCH  62  71
ENDBRANCH  55  62
ENDBRANCH  51  58
ENDBRANCH  50  53
BRANCH  50  82
ATOM     82  CB  PHE A   4      -9.719  22.637   3.532  0.00  0.00    +0.055 C 
BRANCH  82  83
ATOM     83  CG  PHE A   4      -8.874  22.610   2.333  0.00  0.00    -0.020 A 
ATOM     84  CD2 PHE A   4      -7.513  22.322   2.428  0.00  0.00    -0.004 A 
ATOM     85  CE2 PHE A   4      -6.736  22.229   1.278  0.00  0.00    -0.000 A 
ATOM     86  CZ  PHE A   4      -7.309  22.462   0.025  0.00  0.00    -0.000 A 
ATOM     87  CE1 PHE A   4      -8.669  22.758  -0.074  0.00  0.00    -0.000 A 
ATOM     88  CD1 PHE A   4      -9.442  22.846   1.054  0.00  0.00    -0.004 A 
ENDBRANCH  82  83
ENDBRANCH  50  82
ENDBRANCH  46  50
ENDBRANCH   1  48
BRANCH   1  89
ATOM     89  CB  GLN A   5     -14.468  20.590   6.047  0.00  0.00    +0.039 C 
BRANCH  89  90
ATOM     90  CG  GLN A   5     -14.891  21.914   5.426  0.00  0.00    +0.087 C 
BRANCH  90  91
ATOM     91  CD  GLN A   5     -16.310  21.895   4.850  0.00  0.00    +0.219 C 
ATOM     92  NE2 GLN A   5     -16.947  23.072   4.755  0.00  0.00    -0.329 N 
ATOM     93 HE21 GLN A   5     -16.492  23.939   5.106  0.00  0.00    +0.145 HD
ATOM     94 HE22 GLN A   5     -17.895  23.117   4.330  0.00  0.00    +0.145 HD
ATOM     95  OE1 GLN A   5     -16.794  20.861   4.458  0.00  0.00    -0.275 OA
ENDBRANCH  90  91
ENDBRANCH  89  90
ENDBRANCH   1  89
TORSDOF 31
REMARK  Name = ../refined-set-2016/4xya/4xya_pocket.pdb
REMARK  133 active torsions:
REMARK  status: ('A' for Active; 'I' for Inactive)
REMARK    1  A    between atoms: _1  and  _3
REMARK    2  A    between atoms: _3  and  _4
REMARK    3  A    between atoms: _7  and  _9
REMARK    4  A    between atoms: _9  and  _10
REMARK    5  A    between atoms: _9  and  _12
REMARK    6  A    between atoms: _12  and  _13
REMARK    7  A    between atoms: _24  and  _25
REMARK    8  A    between atoms: _30  and  _32
REMARK    9  A    between atoms: _32  and  _33
REMARK   10  A    between atoms: _32  and  _35
REMARK   11  A    between atoms: _35  and  _36
REMARK   12  A    between atoms: _42  and  _44
REMARK   13  A    between atoms: _44  and  _45
REMARK   14  A    between atoms: _44  and  _47
REMARK   15  A    between atoms: _47  and  _48
REMARK   16  A    between atoms: _48  and  _49
REMARK   17  A    between atoms: _54  and  _56
REMARK   18  A    between atoms: _56  and  _57
REMARK   19  A    between atoms: _56  and  _59
REMARK   20  A    between atoms: _59  and  _60
REMARK   21  A    between atoms: _60  and  _61
REMARK   22  A    between atoms: _67  and  _68
REMARK   23  A    between atoms: _73  and  _75
REMARK   24  A    between atoms: _75  and  _76
REMARK   25  A    between atoms: _75  and  _78
REMARK   26  A    between atoms: _81  and  _83
REMARK   27  A    between atoms: _83  and  _84
REMARK   28  A    between atoms: _83  and  _86
REMARK   29  A    between atoms: _86  and  _87
REMARK   30  A    between atoms: _90  and  _92
REMARK   31  A    between atoms: _92  and  _93
REMARK   32  A    between atoms: _96  and  _98
REMARK   33  A    between atoms: _98  and  _99
REMARK   34  A    between atoms: _98  and  _101
REMARK   35  A    between atoms: _101  and  _102
REMARK   36  A    between atoms: _102  and  _103
REMARK   37  A    between atoms: _103  and  _104
REMARK   38  A    between atoms: _104  and  _105
REMARK   39  A    between atoms: _109  and  _111
REMARK   40  A    between atoms: _111  and  _112
REMARK   41  A    between atoms: _111  and  _114
REMARK   42  A    between atoms: _114  and  _115
REMARK   43  A    between atoms: _118  and  _120
REMARK   44  A    between atoms: _120  and  _121
REMARK   45  A    between atoms: _120  and  _123
REMARK   46  A    between atoms: _123  and  _124
REMARK   47  A    between atoms: _129  and  _131
REMARK   48  A    between atoms: _131  and  _132
REMARK   49  A    between atoms: _131  and  _134
REMARK   50  A    between atoms: _134  and  _135
REMARK   51  A    between atoms: _138  and  _140
REMARK   52  A    between atoms: _140  and  _141
REMARK   53  A    between atoms: _140  and  _143
REMARK   54  A    between atoms: _143  and  _144
REMARK   55  A    between atoms: _149  and  _150
REMARK   56  A    between atoms: _152  and  _154
REMARK   57  A    between atoms: _154  and  _155
REMARK   58  A    between atoms: _154  and  _157
REMARK   59  A    between atoms: _157  and  _158
REMARK   60  A    between atoms: _163  and  _164
REMARK   61  A    between atoms: _166  and  _168
REMARK   62  A    between atoms: _168  and  _169
REMARK   63  A    between atoms: _168  and  _171
REMARK   64  A    between atoms: _171  and  _172
REMARK   65  A    between atoms: _175  and  _177
REMARK   66  A    between atoms: _177  and  _178
REMARK   67  A    between atoms: _177  and  _180
REMARK   68  A    between atoms: _180  and  _181
REMARK   69  A    between atoms: _181  and  _182
REMARK   70  A    between atoms: _184  and  _186
REMARK   71  A    between atoms: _186  and  _187
REMARK   72  A    between atoms: _186  and  _189
REMARK   73  A    between atoms: _189  and  _190
REMARK   74  A    between atoms: _193  and  _195
REMARK   75  A    between atoms: _195  and  _196
REMARK   76  A    between atoms: _195  and  _198
REMARK   77  A    between atoms: _198  and  _199
REMARK   78  A    between atoms: _199  and  _200
REMARK   79  A    between atoms: _202  and  _204
REMARK   80  A    between atoms: _204  and  _205
REMARK   81  A    between atoms: _204  and  _207
REMARK   82  A    between atoms: _207  and  _208
REMARK   83  A    between atoms: _208  and  _209
REMARK   84  A    between atoms: _211  and  _213
REMARK   85  A    between atoms: _213  and  _214
REMARK   86  A    between atoms: _213  and  _216
REMARK   87  A    between atoms: _216  and  _217
REMARK   88  A    between atoms: _223  and  _225
REMARK   89  A    between atoms: _225  and  _226
REMARK   90  A    between atoms: _225  and  _228
REMARK   91  A    between atoms: _228  and  _229
REMARK   92  A    between atoms: _234  and  _236
REMARK   93  A    between atoms: _236  and  _237
REMARK   94  A    between atoms: _236  and  _239
REMARK   95  A    between atoms: _241  and  _243
REMARK   96  A    between atoms: _243  and  _244
REMARK   97  A    between atoms: _243  and  _246
REMARK   98  A    between atoms: _246  and  _247
REMARK   99  A    between atoms: _252  and  _253
REMARK  100  A    between atoms: _255  and  _257
REMARK  101  A    between atoms: _257  and  _258
REMARK  102  A    between atoms: _257  and  _260
REMARK  103  A    between atoms: _260  and  _261
REMARK  104  A    between atoms: _266  and  _267
REMARK  105  A    between atoms: _269  and  _271
REMARK  106  A    between atoms: _271  and  _272
REMARK  107  A    between atoms: _271  and  _274
REMARK  108  A    between atoms: _274  and  _275
REMARK  109  A    between atoms: _280  and  _282
REMARK  110  A    between atoms: _282  and  _283
REMARK  111  A    between atoms: _282  and  _285
REMARK  112  A    between atoms: _285  and  _286
REMARK  113  A    between atoms: _286  and  _287
REMARK  114  A    between atoms: _287  and  _288
REMARK  115  A    between atoms: _288  and  _289
REMARK  116  A    between atoms: _293  and  _295
REMARK  117  A    between atoms: _295  and  _296
REMARK  118  A    between atoms: _295  and  _298
REMARK  119  A    between atoms: _298  and  _299
REMARK  120  A    between atoms: _302  and  _304
REMARK  121  A    between atoms: _304  and  _305
REMARK  122  A    between atoms: _304  and  _307
REMARK  123  A    between atoms: _307  and  _308
REMARK  124  A    between atoms: _311  and  _313
REMARK  125  A    between atoms: _313  and  _314
REMARK  126  A    between atoms: _313  and  _316
REMARK  127  A    between atoms: _319  and  _321
REMARK  128  A    between atoms: _321  and  _322
REMARK  129  A    between atoms: _321  and  _324
REMARK  130  A    between atoms: _324  and  _325
REMARK  131  A    between atoms: _325  and  _326
REMARK  132  A    between atoms: _328  and  _330
REMARK  133  A    between atoms: _330  and  _331
REMARK                            x       y       z     vdW  Elec       q    Type
REMARK                         _______ _______ _______ _____ _____    ______ ____
ROOT
ATOM      1  C   LEU A   2      -6.706   7.979  -0.353  0.00  0.00    +0.241 C 
ATOM      2  N   ASN A   3      -6.252   6.890   0.212  0.00  0.00    -0.297 N 
ATOM      3  H   ASN A   3      -6.751   6.529   1.050  0.00  0.00    +0.150 HD
ATOM      4  O   LEU A   2      -6.211   8.471  -1.365  0.00  0.00    -0.273 OA
ENDROOT
BRANCH   1   5
ATOM      5  CA  LEU A   2      -7.836   8.690   0.382  0.00  0.00    +0.149 C 
BRANCH   5   7
ATOM      6  C   LYS A   1      -9.104   7.012   1.583  0.00  0.00    +0.238 C 
ATOM      7  N   LEU A   2      -8.226   7.997   1.601  0.00  0.00    -0.297 N 
ATOM      8  H   LEU A   2      -7.803   8.285   2.507  0.00  0.00    +0.150 HD
ATOM      9  O   LYS A   1      -9.608   6.631   0.550  0.00  0.00    -0.274 OA
BRANCH   6  10
ATOM     10  CA  LYS A   1      -9.506   6.382   2.932  0.00  0.00    +0.145 C 
BRANCH  10  11
ATOM     11  N   LYS A   1      -8.410   6.249   3.916  0.00  0.00    -0.238 NA
ATOM     12  H   LYS A   1      -8.484   6.696   4.852  0.00  0.00    +0.142 HD
ENDBRANCH  10  11
BRANCH  10  13
ATOM     13  CB  LYS A   1     -10.717   7.117   3.506  0.00  0.00    +0.026 C 
BRANCH  13  14
ATOM     14  CG  LYS A   1     -11.574   6.307   4.467  0.00  0.00    -0.000 C 
BRANCH  14  15
ATOM     15  CD  LYS A   1     -12.110   5.012   3.861  0.00  0.00    -0.024 C 
BRANCH  15  16
ATOM     16  CE  LYS A   1     -13.255   4.451   4.722  0.00  0.00    -0.086 C 
BRANCH  16  17
ATOM     17  NZ  LYS A   1     -13.795   3.178   4.145  0.00  0.00    +0.380 N 
ATOM     18  HZ1 LYS A   1     -14.565   2.825   4.748  0.00  0.00    -0.089 HD
ATOM     19  HZ2 LYS A   1     -13.035   2.469   4.101  0.00  0.00    -0.089 HD
ATOM     20  HZ3 LYS A   1     -14.158   3.359   3.187  0.00  0.00    -0.089 HD
ENDBRANCH  16  17
ENDBRANCH  15  16
ENDBRANCH  14  15
ENDBRANCH  13  14
ENDBRANCH  10  13
ENDBRANCH   6  10
ENDBRANCH   5   7
BRANCH   5  21
ATOM     21  CB  LEU A   2      -7.396  10.120   0.702  0.00  0.00    +0.029 C 
BRANCH  21  22
ATOM     22  CG  LEU A   2      -8.516  10.919   1.382  0.00  0.00    +0.002 C 
ATOM     23  CD2 LEU A   2      -8.059  12.260   1.902  0.00  0.00    +0.000 C 
ATOM     24  CD1 LEU A   2      -9.661  11.097   0.400  0.00  0.00    +0.000 C 
ENDBRANCH  21  22
ENDBRANCH   5  21
ENDBRANCH   1   5
BRANCH   2  25
ATOM     25  CA  ASN A   3      -5.074   6.144  -0.269  0.00  0.00    +0.158 C 
BRANCH  25  26
ATOM     26  C   ASN A   3      -3.869   7.065  -0.491  0.00  0.00    +0.241 C 
ATOM     27  N   LEU A   4      -3.461   7.783   0.543  0.00  0.00    -0.298 N 
ATOM     28  H   LEU A   4      -3.983   7.731   1.441  0.00  0.00    +0.150 HD
ATOM     29  O   ASN A   3      -3.372   7.195  -1.610  0.00  0.00    -0.273 OA
BRANCH  27  30
ATOM     30  CA  LEU A   4      -2.290   8.646   0.440  0.00  0.00    +0.137 C 
BRANCH  30  31
ATOM     31  C   LEU A   4      -1.295   8.168   1.488  0.00  0.00    +0.227 C 
ATOM     32  O   LEU A   4      -1.074   8.835   2.484  0.00  0.00    -0.286 OA
ENDBRANCH  30  31
BRANCH  30  33
ATOM     33  CB  LEU A   4      -2.671  10.097   0.707  0.00  0.00    +0.028 C 
BRANCH  33  34
ATOM     34  CG  LEU A   4      -3.808  10.715  -0.103  0.00  0.00    +0.002 C 
ATOM     35  CD2 LEU A   4      -4.084  12.113   0.440  0.00  0.00    +0.000 C 
ATOM     36  CD1 LEU A   4      -3.530  10.724  -1.591  0.00  0.00    +0.000 C 
ENDBRANCH  33  34
ENDBRANCH  30  33
ENDBRANCH  27  30
ENDBRANCH  25  26
BRANCH  25  37
ATOM     37  CB  ASN A   3      -5.426   5.365  -1.549  0.00  0.00    +0.114 C 
BRANCH  37  38
ATOM     38  CG  ASN A   3      -4.325   4.377  -1.942  0.00  0.00    +0.222 C 
ATOM     39  OD1 ASN A   3      -3.603   3.878  -1.084  0.00  0.00    -0.275 OA
ATOM     40  ND2 ASN A   3      -4.184   4.111  -3.233  0.00  0.00    -0.329 N 
ATOM     41 HD21 ASN A   3      -3.440   3.458  -3.551  0.00  0.00    +0.145 HD
ATOM     42 HD22 ASN A   3      -4.817   4.556  -3.928  0.00  0.00    +0.145 HD
ENDBRANCH  37  38
ENDBRANCH  25  37
ENDBRANCH   2  25
TORSDOF 19
REMARK  Name = ../refined-set-2016/4xya/4xya_pocket.pdb
REMARK  133 active torsions:
REMARK  status: ('A' for Active; 'I' for Inactive)
REMARK    1  A    between atoms: _1  and  _3
REMARK    2  A    between atoms: _3  and  _4
REMARK    3  A    between atoms: _7  and  _9
REMARK    4  A    between atoms: _9  and  _10
REMARK    5  A    between atoms: _9  and  _12
REMARK    6  A    between atoms: _12  and  _13
REMARK    7  A    between atoms: _24  and  _25
REMARK    8  A    between atoms: _30  and  _32
REMARK    9  A    between atoms: _32  and  _33
REMARK   10  A    between atoms: _32  and  _35
REMARK   11  A    between atoms: _35  and  _36
REMARK   12  A    between atoms: _42  and  _44
REMARK   13  A    between atoms: _44  and  _45
REMARK   14  A    between atoms: _44  and  _47
REMARK   15  A    between atoms: _47  and  _48
REMARK   16  A    between atoms: _48  and  _49
REMARK   17  A    between atoms: _54  and  _56
REMARK   18  A    between atoms: _56  and  _57
REMARK   19  A    between atoms: _56  and  _59
REMARK   20  A    between atoms: _59  and  _60
REMARK   21  A    between atoms: _60  and  _61
REMARK   22  A    between atoms: _67  and  _68
REMARK   23  A    between atoms: _73  and  _75
REMARK   24  A    between atoms: _75  and  _76
REMARK   25  A    between atoms: _75  and  _78
REMARK   26  A    between atoms: _81  and  _83
REMARK   27  A    between atoms: _83  and  _84
REMARK   28  A    between atoms: _83  and  _86
REMARK   29  A    between atoms: _86  and  _87
REMARK   30  A    between atoms: _90  and  _92
REMARK   31  A    between atoms: _92  and  _93
REMARK   32  A    between atoms: _96  and  _98
REMARK   33  A    between atoms: _98  and  _99
REMARK   34  A    between atoms: _98  and  _101
REMARK   35  A    between atoms: _101  and  _102
REMARK   36  A    between atoms: _102  and  _103
REMARK   37  A    between atoms: _103  and  _104
REMARK   38  A    between atoms: _104  and  _105
REMARK   39  A    between atoms: _109  and  _111
REMARK   40  A    between atoms: _111  and  _112
REMARK   41  A    between atoms: _111  and  _114
REMARK   42  A    between atoms: _114  and  _115
REMARK   43  A    between atoms: _118  and  _120
REMARK   44  A    between atoms: _120  and  _121
REMARK   45  A    between atoms: _120  and  _123
REMARK   46  A    between atoms: _123  and  _124
REMARK   47  A    between atoms: _129  and  _131
REMARK   48  A    between atoms: _131  and  _132
REMARK   49  A    between atoms: _131  and  _134
REMARK   50  A    between atoms: _134  and  _135
REMARK   51  A    between atoms: _138  and  _140
REMARK   52  A    between atoms: _140  and  _141
REMARK   53  A    between atoms: _140  and  _143
REMARK   54  A    between atoms: _143  and  _144
REMARK   55  A    between atoms: _149  and  _150
REMARK   56  A    between atoms: _152  and  _154
REMARK   57  A    between atoms: _154  and  _155
REMARK   58  A    between atoms: _154  and  _157
REMARK   59  A    between atoms: _157  and  _158
REMARK   60  A    between atoms: _163  and  _164
REMARK   61  A    between atoms: _166  and  _168
REMARK   62  A    between atoms: _168  and  _169
REMARK   63  A    between atoms: _168  and  _171
REMARK   64  A    between atoms: _171  and  _172
REMARK   65  A    between atoms: _175  and  _177
REMARK   66  A    between atoms: _177  and  _178
REMARK   67  A    between atoms: _177  and  _180
REMARK   68  A    between atoms: _180  and  _181
REMARK   69  A    between atoms: _181  and  _182
REMARK   70  A    between atoms: _184  and  _186
REMARK   71  A    between atoms: _186  and  _187
REMARK   72  A    between atoms: _186  and  _189
REMARK   73  A    between atoms: _189  and  _190
REMARK   74  A    between atoms: _193  and  _195
REMARK   75  A    between atoms: _195  and  _196
REMARK   76  A    between atoms: _195  and  _198
REMARK   77  A    between atoms: _198  and  _199
REMARK   78  A    between atoms: _199  and  _200
REMARK   79  A    between atoms: _202  and  _204
REMARK   80  A    between atoms: _204  and  _205
REMARK   81  A    between atoms: _204  and  _207
REMARK   82  A    between atoms: _207  and  _208
REMARK   83  A    between atoms: _208  and  _209
REMARK   84  A    between atoms: _211  and  _213
REMARK   85  A    between atoms: _213  and  _214
REMARK   86  A    between atoms: _213  and  _216
REMARK   87  A    between atoms: _216  and  _217
REMARK   88  A    between atoms: _223  and  _225
REMARK   89  A    between atoms: _225  and  _226
REMARK   90  A    between atoms: _225  and  _228
REMARK   91  A    between atoms: _228  and  _229
REMARK   92  A    between atoms: _234  and  _236
REMARK   93  A    between atoms: _236  and  _237
REMARK   94  A    between atoms: _236  and  _239
REMARK   95  A    between atoms: _241  and  _243
REMARK   96  A    between atoms: _243  and  _244
REMARK   97  A    between atoms: _243  and  _246
REMARK   98  A    between atoms: _246  and  _247
REMARK   99  A    between atoms: _252  and  _253
REMARK  100  A    between atoms: _255  and  _257
REMARK  101  A    between atoms: _257  and  _258
REMARK  102  A    between atoms: _257  and  _260
REMARK  103  A    between atoms: _260  and  _261
REMARK  104  A    between atoms: _266  and  _267
REMARK  105  A    between atoms: _269  and  _271
REMARK  106  A    between atoms: _271  and  _272
REMARK  107  A    between atoms: _271  and  _274
REMARK  108  A    between atoms: _274  and  _275
REMARK  109  A    between atoms: _280  and  _282
REMARK  110  A    between atoms: _282  and  _283
REMARK  111  A    between atoms: _282  and  _285
REMARK  112  A    between atoms: _285  and  _286
REMARK  113  A    between atoms: _286  and  _287
REMARK  114  A    between atoms: _287  and  _288
REMARK  115  A    between atoms: _288  and  _289
REMARK  116  A    between atoms: _293  and  _295
REMARK  117  A    between atoms: _295  and  _296
REMARK  118  A    between atoms: _295  and  _298
REMARK  119  A    between atoms: _298  and  _299
REMARK  120  A    between atoms: _302  and  _304
REMARK  121  A    between atoms: _304  and  _305
REMARK  122  A    between atoms: _304  and  _307
REMARK  123  A    between atoms: _307  and  _308
REMARK  124  A    between atoms: _311  and  _313
REMARK  125  A    between atoms: _313  and  _314
REMARK  126  A    between atoms: _313  and  _316
REMARK  127  A    between atoms: _319  and  _321
REMARK  128  A    between atoms: _321  and  _322
REMARK  129  A    between atoms: _321  and  _324
REMARK  130  A    between atoms: _324  and  _325
REMARK  131  A    between atoms: _325  and  _326
REMARK  132  A    between atoms: _328  and  _330
REMARK  133  A    between atoms: _330  and  _331
REMARK                            x       y       z     vdW  Elec       q    Type
REMARK                         _______ _______ _______ _____ _____    ______ ____
ROOT
ATOM      1  C   TYR A   1       1.710  12.276   4.709  0.00  0.00    +0.239 C 
ATOM      2  N   TYR A   2       1.593  11.449   5.715  0.00  0.00    -0.298 N 
ATOM      3  H   TYR A   2       1.132  10.528   5.570  0.00  0.00    +0.150 HD
ATOM      4  O   TYR A   1       2.362  13.317   4.806  0.00  0.00    -0.274 OA
ENDROOT
BRANCH   1   5
ATOM      5  CA  TYR A   1       1.027  11.859   3.407  0.00  0.00    +0.149 C 
BRANCH   5   6
ATOM      6  N   TYR A   1       1.409  10.519   2.983  0.00  0.00    -0.238 NA
ATOM      7  H   TYR A   1       0.663   9.817   2.800  0.00  0.00    +0.142 HD
ENDBRANCH   5   6
BRANCH   5   8
ATOM      8  CB  TYR A   1      -0.508  11.988   3.492  0.00  0.00    +0.053 C 
BRANCH   8   9
ATOM      9  CG  TYR A   1      -0.910  13.409   3.734  0.00  0.00    -0.020 A 
ATOM     10  CD2 TYR A   1      -1.123  13.879   5.041  0.00  0.00    -0.001 A 
ATOM     11  CE2 TYR A   1      -1.417  15.217   5.293  0.00  0.00    +0.036 A 
ATOM     12  CZ  TYR A   1      -1.556  16.109   4.236  0.00  0.00    +0.134 A 
ATOM     13  CE1 TYR A   1      -1.365  15.666   2.924  0.00  0.00    +0.036 A 
ATOM     14  CD1 TYR A   1      -1.035  14.318   2.670  0.00  0.00    -0.001 A 
BRANCH  12  15
ATOM     15  OH  TYR A   1      -1.818  17.483   4.510  0.00  0.00    -0.506 OA
ATOM     16  HH  TYR A   1      -1.889  17.981   3.657  0.00  0.00    +0.292 HD
ENDBRANCH  12  15
ENDBRANCH   8   9
ENDBRANCH   5   8
ENDBRANCH   1   5
BRANCH   2  17
ATOM     17  CA  TYR A   2       2.090  11.791   7.013  0.00  0.00    +0.141 C 
BRANCH  17  18
ATOM     18  C   TYR A   2       3.569  11.411   7.191  0.00  0.00    +0.227 C 
ATOM     19  O   TYR A   2       4.092  11.582   8.273  0.00  0.00    -0.286 OA
ENDBRANCH  17  18
BRANCH  17  20
ATOM     20  CB  TYR A   2       1.210  11.123   8.062  0.00  0.00    +0.054 C 
BRANCH  20  21
ATOM     21  CG  TYR A   2      -0.141  11.826   8.169  0.00  0.00    -0.020 A 
ATOM     22  CD2 TYR A   2      -0.224  13.149   8.618  0.00  0.00    -0.001 A 
ATOM     23  CE2 TYR A   2      -1.464  13.801   8.719  0.00  0.00    +0.036 A 
ATOM     24  CZ  TYR A   2      -2.639  13.112   8.385  0.00  0.00    +0.134 A 
ATOM     25  CE1 TYR A   2      -2.583  11.803   7.912  0.00  0.00    +0.036 A 
ATOM     26  CD1 TYR A   2      -1.346  11.163   7.808  0.00  0.00    -0.001 A 
BRANCH  24  27
ATOM     27  OH  TYR A   2      -3.850  13.775   8.427  0.00  0.00    -0.506 OA
ATOM     28  HH  TYR A   2      -4.226  13.832   7.513  0.00  0.00    +0.292 HD
ENDBRANCH  24  27
ENDBRANCH  20  21
ENDBRANCH  17  20
ENDBRANCH   2  17
TORSDOF 10
REMARK  Name = ../refined-set-2016/4xya/4xya_pocket.pdb
REMARK  133 active torsions:
REMARK  status: ('A' for Active; 'I' for Inactive)
REMARK    1  A    between atoms: _1  and  _3
REMARK    2  A    between atoms: _3  and  _4
REMARK    3  A    between atoms: _7  and  _9
REMARK    4  A    between atoms: _9  and  _10
REMARK    5  A    between atoms: _9  and  _12
REMARK    6  A    between atoms: _12  and  _13
REMARK    7  A    between atoms: _24  and  _25
REMARK    8  A    between atoms: _30  and  _32
REMARK    9  A    between atoms: _32  and  _33
REMARK   10  A    between atoms: _32  and  _35
REMARK   11  A    between atoms: _35  and  _36
REMARK   12  A    between atoms: _42  and  _44
REMARK   13  A    between atoms: _44  and  _45
REMARK   14  A    between atoms: _44  and  _47
REMARK   15  A    between atoms: _47  and  _48
REMARK   16  A    between atoms: _48  and  _49
REMARK   17  A    between atoms: _54  and  _56
REMARK   18  A    between atoms: _56  and  _57
REMARK   19  A    between atoms: _56  and  _59
REMARK   20  A    between atoms: _59  and  _60
REMARK   21  A    between atoms: _60  and  _61
REMARK   22  A    between atoms: _67  and  _68
REMARK   23  A    between atoms: _73  and  _75
REMARK   24  A    between atoms: _75  and  _76
REMARK   25  A    between atoms: _75  and  _78
REMARK   26  A    between atoms: _81  and  _83
REMARK   27  A    between atoms: _83  and  _84
REMARK   28  A    between atoms: _83  and  _86
REMARK   29  A    between atoms: _86  and  _87
REMARK   30  A    between atoms: _90  and  _92
REMARK   31  A    between atoms: _92  and  _93
REMARK   32  A    between atoms: _96  and  _98
REMARK   33  A    between atoms: _98  and  _99
REMARK   34  A    between atoms: _98  and  _101
REMARK   35  A    between atoms: _101  and  _102
REMARK   36  A    between atoms: _102  and  _103
REMARK   37  A    between atoms: _103  and  _104
REMARK   38  A    between atoms: _104  and  _105
REMARK   39  A    between atoms: _109  and  _111
REMARK   40  A    between atoms: _111  and  _112
REMARK   41  A    between atoms: _111  and  _114
REMARK   42  A    between atoms: _114  and  _115
REMARK   43  A    between atoms: _118  and  _120
REMARK   44  A    between atoms: _120  and  _121
REMARK   45  A    between atoms: _120  and  _123
REMARK   46  A    between atoms: _123  and  _124
REMARK   47  A    between atoms: _129  and  _131
REMARK   48  A    between atoms: _131  and  _132
REMARK   49  A    between atoms: _131  and  _134
REMARK   50  A    between atoms: _134  and  _135
REMARK   51  A    between atoms: _138  and  _140
REMARK   52  A    between atoms: _140  and  _141
REMARK   53  A    between atoms: _140  and  _143
REMARK   54  A    between atoms: _143  and  _144
REMARK   55  A    between atoms: _149  and  _150
REMARK   56  A    between atoms: _152  and  _154
REMARK   57  A    between atoms: _154  and  _155
REMARK   58  A    between atoms: _154  and  _157
REMARK   59  A    between atoms: _157  and  _158
REMARK   60  A    between atoms: _163  and  _164
REMARK   61  A    between atoms: _166  and  _168
REMARK   62  A    between atoms: _168  and  _169
REMARK   63  A    between atoms: _168  and  _171
REMARK   64  A    between atoms: _171  and  _172
REMARK   65  A    between atoms: _175  and  _177
REMARK   66  A    between atoms: _177  and  _178
REMARK   67  A    between atoms: _177  and  _180
REMARK   68  A    between atoms: _180  and  _181
REMARK   69  A    between atoms: _181  and  _182
REMARK   70  A    between atoms: _184  and  _186
REMARK   71  A    between atoms: _186  and  _187
REMARK   72  A    between atoms: _186  and  _189
REMARK   73  A    between atoms: _189  and  _190
REMARK   74  A    between atoms: _193  and  _195
REMARK   75  A    between atoms: _195  and  _196
REMARK   76  A    between atoms: _195  and  _198
REMARK   77  A    between atoms: _198  and  _199
REMARK   78  A    between atoms: _199  and  _200
REMARK   79  A    between atoms: _202  and  _204
REMARK   80  A    between atoms: _204  and  _205
REMARK   81  A    between atoms: _204  and  _207
REMARK   82  A    between atoms: _207  and  _208
REMARK   83  A    between atoms: _208  and  _209
REMARK   84  A    between atoms: _211  and  _213
REMARK   85  A    between atoms: _213  and  _214
REMARK   86  A    between atoms: _213  and  _216
REMARK   87  A    between atoms: _216  and  _217
REMARK   88  A    between atoms: _223  and  _225
REMARK   89  A    between atoms: _225  and  _226
REMARK   90  A    between atoms: _225  and  _228
REMARK   91  A    between atoms: _228  and  _229
REMARK   92  A    between atoms: _234  and  _236
REMARK   93  A    between atoms: _236  and  _237
REMARK   94  A    between atoms: _236  and  _239
REMARK   95  A    between atoms: _241  and  _243
REMARK   96  A    between atoms: _243  and  _244
REMARK   97  A    between atoms: _243  and  _246
REMARK   98  A    between atoms: _246  and  _247
REMARK   99  A    between atoms: _252  and  _253
REMARK  100  A    between atoms: _255  and  _257
REMARK  101  A    between atoms: _257  and  _258
REMARK  102  A    between atoms: _257  and  _260
REMARK  103  A    between atoms: _260  and  _261
REMARK  104  A    between atoms: _266  and  _267
REMARK  105  A    between atoms: _269  and  _271
REMARK  106  A    between atoms: _271  and  _272
REMARK  107  A    between atoms: _271  and  _274
REMARK  108  A    between atoms: _274  and  _275
REMARK  109  A    between atoms: _280  and  _282
REMARK  110  A    between atoms: _282  and  _283
REMARK  111  A    between atoms: _282  and  _285
REMARK  112  A    between atoms: _285  and  _286
REMARK  113  A    between atoms: _286  and  _287
REMARK  114  A    between atoms: _287  and  _288
REMARK  115  A    between atoms: _288  and  _289
REMARK  116  A    between atoms: _293  and  _295
REMARK  117  A    between atoms: _295  and  _296
REMARK  118  A    between atoms: _295  and  _298
REMARK  119  A    between atoms: _298  and  _299
REMARK  120  A    between atoms: _302  and  _304
REMARK  121  A    between atoms: _304  and  _305
REMARK  122  A    between atoms: _304  and  _307
REMARK  123  A    between atoms: _307  and  _308
REMARK  124  A    between atoms: _311  and  _313
REMARK  125  A    between atoms: _313  and  _314
REMARK  126  A    between atoms: _313  and  _316
REMARK  127  A    between atoms: _319  and  _321
REMARK  128  A    between atoms: _321  and  _322
REMARK  129  A    between atoms: _321  and  _324
REMARK  130  A    between atoms: _324  and  _325
REMARK  131  A    between atoms: _325  and  _326
REMARK  132  A    between atoms: _328  and  _330
REMARK  133  A    between atoms: _330  and  _331
REMARK                            x       y       z     vdW  Elec       q    Type
REMARK                         _______ _______ _______ _____ _____    ______ ____
ROOT
ATOM      1  CA  ILE A   1       3.489  16.390   6.231  0.00  0.00    +0.133 C 
ENDROOT
BRANCH   1   2
ATOM      2  N   ILE A   1       4.117  15.256   5.514  0.00  0.00    -0.239 NA
ATOM      3  H   ILE A   1       3.554  14.399   5.339  0.00  0.00    +0.142 HD
ENDBRANCH   1   2
BRANCH   1   4
ATOM      4  C   ILE A   1       3.544  16.102   7.749  0.00  0.00    +0.224 C 
ATOM      5  O   ILE A   1       2.856  15.203   8.262  0.00  0.00    -0.287 OA
ENDBRANCH   1   4
BRANCH   1   6
ATOM      6  CB  ILE A   1       2.048  16.616   5.708  0.00  0.00    +0.023 C 
ATOM      7  CG2 ILE A   1       1.275  17.658   6.546  0.00  0.00    +0.002 C 
BRANCH   6   8
ATOM      8  CG1 ILE A   1       2.063  16.988   4.221  0.00  0.00    +0.002 C 
ATOM      9  CD1 ILE A   1       2.886  18.230   3.853  0.00  0.00    +0.000 C 
ENDBRANCH   6   8
ENDBRANCH   1   6
TORSDOF 4
REMARK  Name = ../refined-set-2016/4xya/4xya_pocket.pdb
REMARK  133 active torsions:
REMARK  status: ('A' for Active; 'I' for Inactive)
REMARK    1  A    between atoms: _1  and  _3
REMARK    2  A    between atoms: _3  and  _4
REMARK    3  A    between atoms: _7  and  _9
REMARK    4  A    between atoms: _9  and  _10
REMARK    5  A    between atoms: _9  and  _12
REMARK    6  A    between atoms: _12  and  _13
REMARK    7  A    between atoms: _24  and  _25
REMARK    8  A    between atoms: _30  and  _32
REMARK    9  A    between atoms: _32  and  _33
REMARK   10  A    between atoms: _32  and  _35
REMARK   11  A    between atoms: _35  and  _36
REMARK   12  A    between atoms: _42  and  _44
REMARK   13  A    between atoms: _44  and  _45
REMARK   14  A    between atoms: _44  and  _47
REMARK   15  A    between atoms: _47  and  _48
REMARK   16  A    between atoms: _48  and  _49
REMARK   17  A    between atoms: _54  and  _56
REMARK   18  A    between atoms: _56  and  _57
REMARK   19  A    between atoms: _56  and  _59
REMARK   20  A    between atoms: _59  and  _60
REMARK   21  A    between atoms: _60  and  _61
REMARK   22  A    between atoms: _67  and  _68
REMARK   23  A    between atoms: _73  and  _75
REMARK   24  A    between atoms: _75  and  _76
REMARK   25  A    between atoms: _75  and  _78
REMARK   26  A    between atoms: _81  and  _83
REMARK   27  A    between atoms: _83  and  _84
REMARK   28  A    between atoms: _83  and  _86
REMARK   29  A    between atoms: _86  and  _87
REMARK   30  A    between atoms: _90  and  _92
REMARK   31  A    between atoms: _92  and  _93
REMARK   32  A    between atoms: _96  and  _98
REMARK   33  A    between atoms: _98  and  _99
REMARK   34  A    between atoms: _98  and  _101
REMARK   35  A    between atoms: _101  and  _102
REMARK   36  A    between atoms: _102  and  _103
REMARK   37  A    between atoms: _103  and  _104
REMARK   38  A    between atoms: _104  and  _105
REMARK   39  A    between atoms: _109  and  _111
REMARK   40  A    between atoms: _111  and  _112
REMARK   41  A    between atoms: _111  and  _114
REMARK   42  A    between atoms: _114  and  _115
REMARK   43  A    between atoms: _118  and  _120
REMARK   44  A    between atoms: _120  and  _121
REMARK   45  A    between atoms: _120  and  _123
REMARK   46  A    between atoms: _123  and  _124
REMARK   47  A    between atoms: _129  and  _131
REMARK   48  A    between atoms: _131  and  _132
REMARK   49  A    between atoms: _131  and  _134
REMARK   50  A    between atoms: _134  and  _135
REMARK   51  A    between atoms: _138  and  _140
REMARK   52  A    between atoms: _140  and  _141
REMARK   53  A    between atoms: _140  and  _143
REMARK   54  A    between atoms: _143  and  _144
REMARK   55  A    between atoms: _149  and  _150
REMARK   56  A    between atoms: _152  and  _154
REMARK   57  A    between atoms: _154  and  _155
REMARK   58  A    between atoms: _154  and  _157
REMARK   59  A    between atoms: _157  and  _158
REMARK   60  A    between atoms: _163  and  _164
REMARK   61  A    between atoms: _166  and  _168
REMARK   62  A    between atoms: _168  and  _169
REMARK   63  A    between atoms: _168  and  _171
REMARK   64  A    between atoms: _171  and  _172
REMARK   65  A    between atoms: _175  and  _177
REMARK   66  A    between atoms: _177  and  _178
REMARK   67  A    between atoms: _177  and  _180
REMARK   68  A    between atoms: _180  and  _181
REMARK   69  A    between atoms: _181  and  _182
REMARK   70  A    between atoms: _184  and  _186
REMARK   71  A    between atoms: _186  and  _187
REMARK   72  A    between atoms: _186  and  _189
REMARK   73  A    between atoms: _189  and  _190
REMARK   74  A    between atoms: _193  and  _195
REMARK   75  A    between atoms: _195  and  _196
REMARK   76  A    between atoms: _195  and  _198
REMARK   77  A    between atoms: _198  and  _199
REMARK   78  A    between atoms: _199  and  _200
REMARK   79  A    between atoms: _202  and  _204
REMARK   80  A    between atoms: _204  and  _205
REMARK   81  A    between atoms: _204  and  _207
REMARK   82  A    between atoms: _207  and  _208
REMARK   83  A    between atoms: _208  and  _209
REMARK   84  A    between atoms: _211  and  _213
REMARK   85  A    between atoms: _213  and  _214
REMARK   86  A    between atoms: _213  and  _216
REMARK   87  A    between atoms: _216  and  _217
REMARK   88  A    between atoms: _223  and  _225
REMARK   89  A    between atoms: _225  and  _226
REMARK   90  A    between atoms: _225  and  _228
REMARK   91  A    between atoms: _228  and  _229
REMARK   92  A    between atoms: _234  and  _236
REMARK   93  A    between atoms: _236  and  _237
REMARK   94  A    between atoms: _236  and  _239
REMARK   95  A    between atoms: _241  and  _243
REMARK   96  A    between atoms: _243  and  _244
REMARK   97  A    between atoms: _243  and  _246
REMARK   98  A    between atoms: _246  and  _247
REMARK   99  A    between atoms: _252  and  _253
REMARK  100  A    between atoms: _255  and  _257
REMARK  101  A    between atoms: _257  and  _258
REMARK  102  A    between atoms: _257  and  _260
REMARK  103  A    between atoms: _260  and  _261
REMARK  104  A    between atoms: _266  and  _267
REMARK  105  A    between atoms: _269  and  _271
REMARK  106  A    between atoms: _271  and  _272
REMARK  107  A    between atoms: _271  and  _274
REMARK  108  A    between atoms: _274  and  _275
REMARK  109  A    between atoms: _280  and  _282
REMARK  110  A    between atoms: _282  and  _283
REMARK  111  A    between atoms: _282  and  _285
REMARK  112  A    between atoms: _285  and  _286
REMARK  113  A    between atoms: _286  and  _287
REMARK  114  A    between atoms: _287  and  _288
REMARK  115  A    between atoms: _288  and  _289
REMARK  116  A    between atoms: _293  and  _295
REMARK  117  A    between atoms: _295  and  _296
REMARK  118  A    between atoms: _295  and  _298
REMARK  119  A    between atoms: _298  and  _299
REMARK  120  A    between atoms: _302  and  _304
REMARK  121  A    between atoms: _304  and  _305
REMARK  122  A    between atoms: _304  and  _307
REMARK  123  A    between atoms: _307  and  _308
REMARK  124  A    between atoms: _311  and  _313
REMARK  125  A    between atoms: _313  and  _314
REMARK  126  A    between atoms: _313  and  _316
REMARK  127  A    between atoms: _319  and  _321
REMARK  128  A    between atoms: _321  and  _322
REMARK  129  A    between atoms: _321  and  _324
REMARK  130  A    between atoms: _324  and  _325
REMARK  131  A    between atoms: _325  and  _326
REMARK  132  A    between atoms: _328  and  _330
REMARK  133  A    between atoms: _330  and  _331
REMARK                            x       y       z     vdW  Elec       q    Type
REMARK                         _______ _______ _______ _____ _____    ______ ____
ROOT
ATOM      1  CA  ASP A   2      -7.247  21.655   8.512  0.00  0.00    +0.160 C 
ENDROOT
BRANCH   1   3
ATOM      2  C   MET A   1      -4.820  21.296   8.813  0.00  0.00    +0.238 C 
ATOM      3  N   ASP A   2      -6.019  21.623   9.312  0.00  0.00    -0.297 N 
ATOM      4  H   ASP A   2      -6.082  21.867  10.321  0.00  0.00    +0.150 HD
ATOM      5  O   MET A   1      -4.625  21.060   7.620  0.00  0.00    -0.274 OA
BRANCH   2   6
ATOM      6  CA  MET A   1      -3.660  21.226   9.796  0.00  0.00    +0.146 C 
BRANCH   6   7
ATOM      7  N   MET A   1      -2.646  20.236   9.319  0.00  0.00    -0.238 NA
ATOM      8  H   MET A   1      -2.598  19.985   8.311  0.00  0.00    +0.142 HD
ENDBRANCH   6   7
BRANCH   6   9
ATOM      9  CB  MET A   1      -3.023  22.609  10.021  0.00  0.00    +0.038 C 
BRANCH   9  10
ATOM     10  CG  MET A   1      -3.920  23.626  10.735  0.00  0.00    +0.060 C 
BRANCH  10  11
ATOM     11  SD  MET A   1      -4.742  23.082  12.280  0.00  0.00    -0.139 S 
ATOM     12  CE  MET A   1      -3.297  22.777  13.271  0.00  0.00    +0.069 C 
ENDBRANCH  10  11
ENDBRANCH   9  10
ENDBRANCH   6   9
ENDBRANCH   2   6
ENDBRANCH   1   3
BRANCH   1  13
ATOM     13  C   ASP A   2      -8.248  22.619   9.163  0.00  0.00    +0.241 C 
ATOM     14  O   ASP A   2      -8.103  22.939  10.349  0.00  0.00    -0.273 OA
ATOM     15  N   MET A   3      -9.306  22.975   8.421  0.00  0.00    -0.298 N 
ATOM     16  H   MET A   3      -9.419  22.590   7.462  0.00  0.00    +0.150 HD
BRANCH  15  17
ATOM     17  CA  MET A   3     -10.291  23.893   8.950  0.00  0.00    +0.138 C 
BRANCH  17  18
ATOM     18  C   MET A   3     -11.199  23.319  10.038  0.00  0.00    +0.227 C 
ATOM     19  O   MET A   3     -11.797  24.085  10.793  0.00  0.00    -0.286 OA
ENDBRANCH  17  18
BRANCH  17  20
ATOM     20  CB  MET A   3     -11.161  24.543   7.859  0.00  0.00    +0.039 C 
BRANCH  20  21
ATOM     21  CG  MET A   3     -10.314  25.414   6.876  0.00  0.00    +0.060 C 
BRANCH  21  22
ATOM     22  SD  MET A   3     -11.228  26.701   6.011  0.00  0.00    -0.139 S 
ATOM     23  CE  MET A   3     -12.278  25.689   4.926  0.00  0.00    +0.069 C 
ENDBRANCH  21  22
ENDBRANCH  20  21
ENDBRANCH  17  20
ENDBRANCH  15  17
ENDBRANCH   1  13
BRANCH   1  24
ATOM     24  CB  ASP A   2      -7.852  20.273   8.440  0.00  0.00    +0.143 C 
BRANCH  24  25
ATOM     25  CG  ASP A   2      -8.228  19.745   9.809  0.00  0.00    +0.367 C 
ATOM     26  OD2 ASP A   2      -7.376  19.319  10.607  0.00  0.00    -0.246 OA
ATOM     27  OD1 ASP A   2      -9.416  19.858  10.110  0.00  0.00    -0.246 OA
ENDBRANCH  24  25
ENDBRANCH   1  24
TORSDOF 14
REMARK  Name = ../refined-set-2016/4xya/4xya_pocket.pdb
REMARK  133 active torsions:
REMARK  status: ('A' for Active; 'I' for Inactive)
REMARK    1  A    between atoms: _1  and  _3
REMARK    2  A    between atoms: _3  and  _4
REMARK    3  A    between atoms: _7  and  _9
REMARK    4  A    between atoms: _9  and  _10
REMARK    5  A    between atoms: _9  and  _12
REMARK    6  A    between atoms: _12  and  _13
REMARK    7  A    between atoms: _24  and  _25
REMARK    8  A    between atoms: _30  and  _32
REMARK    9  A    between atoms: _32  and  _33
REMARK   10  A    between atoms: _32  and  _35
REMARK   11  A    between atoms: _35  and  _36
REMARK   12  A    between atoms: _42  and  _44
REMARK   13  A    between atoms: _44  and  _45
REMARK   14  A    between atoms: _44  and  _47
REMARK   15  A    between atoms: _47  and  _48
REMARK   16  A    between atoms: _48  and  _49
REMARK   17  A    between atoms: _54  and  _56
REMARK   18  A    between atoms: _56  and  _57
REMARK   19  A    between atoms: _56  and  _59
REMARK   20  A    between atoms: _59  and  _60
REMARK   21  A    between atoms: _60  and  _61
REMARK   22  A    between atoms: _67  and  _68
REMARK   23  A    between atoms: _73  and  _75
REMARK   24  A    between atoms: _75  and  _76
REMARK   25  A    between atoms: _75  and  _78
REMARK   26  A    between atoms: _81  and  _83
REMARK   27  A    between atoms: _83  and  _84
REMARK   28  A    between atoms: _83  and  _86
REMARK   29  A    between atoms: _86  and  _87
REMARK   30  A    between atoms: _90  and  _92
REMARK   31  A    between atoms: _92  and  _93
REMARK   32  A    between atoms: _96  and  _98
REMARK   33  A    between atoms: _98  and  _99
REMARK   34  A    between atoms: _98  and  _101
REMARK   35  A    between atoms: _101  and  _102
REMARK   36  A    between atoms: _102  and  _103
REMARK   37  A    between atoms: _103  and  _104
REMARK   38  A    between atoms: _104  and  _105
REMARK   39  A    between atoms: _109  and  _111
REMARK   40  A    between atoms: _111  and  _112
REMARK   41  A    between atoms: _111  and  _114
REMARK   42  A    between atoms: _114  and  _115
REMARK   43  A    between atoms: _118  and  _120
REMARK   44  A    between atoms: _120  and  _121
REMARK   45  A    between atoms: _120  and  _123
REMARK   46  A    between atoms: _123  and  _124
REMARK   47  A    between atoms: _129  and  _131
REMARK   48  A    between atoms: _131  and  _132
REMARK   49  A    between atoms: _131  and  _134
REMARK   50  A    between atoms: _134  and  _135
REMARK   51  A    between atoms: _138  and  _140
REMARK   52  A    between atoms: _140  and  _141
REMARK   53  A    between atoms: _140  and  _143
REMARK   54  A    between atoms: _143  and  _144
REMARK   55  A    between atoms: _149  and  _150
REMARK   56  A    between atoms: _152  and  _154
REMARK   57  A    between atoms: _154  and  _155
REMARK   58  A    between atoms: _154  and  _157
REMARK   59  A    between atoms: _157  and  _158
REMARK   60  A    between atoms: _163  and  _164
REMARK   61  A    between atoms: _166  and  _168
REMARK   62  A    between atoms: _168  and  _169
REMARK   63  A    between atoms: _168  and  _171
REMARK   64  A    between atoms: _171  and  _172
REMARK   65  A    between atoms: _175  and  _177
REMARK   66  A    between atoms: _177  and  _178
REMARK   67  A    between atoms: _177  and  _180
REMARK   68  A    between atoms: _180  and  _181
REMARK   69  A    between atoms: _181  and  _182
REMARK   70  A    between atoms: _184  and  _186
REMARK   71  A    between atoms: _186  and  _187
REMARK   72  A    between atoms: _186  and  _189
REMARK   73  A    between atoms: _189  and  _190
REMARK   74  A    between atoms: _193  and  _195
REMARK   75  A    between atoms: _195  and  _196
REMARK   76  A    between atoms: _195  and  _198
REMARK   77  A    between atoms: _198  and  _199
REMARK   78  A    between atoms: _199  and  _200
REMARK   79  A    between atoms: _202  and  _204
REMARK   80  A    between atoms: _204  and  _205
REMARK   81  A    between atoms: _204  and  _207
REMARK   82  A    between atoms: _207  and  _208
REMARK   83  A    between atoms: _208  and  _209
REMARK   84  A    between atoms: _211  and  _213
REMARK   85  A    between atoms: _213  and  _214
REMARK   86  A    between atoms: _213  and  _216
REMARK   87  A    between atoms: _216  and  _217
REMARK   88  A    between atoms: _223  and  _225
REMARK   89  A    between atoms: _225  and  _226
REMARK   90  A    between atoms: _225  and  _228
REMARK   91  A    between atoms: _228  and  _229
REMARK   92  A    between atoms: _234  and  _236
REMARK   93  A    between atoms: _236  and  _237
REMARK   94  A    between atoms: _236  and  _239
REMARK   95  A    between atoms: _241  and  _243
REMARK   96  A    between atoms: _243  and  _244
REMARK   97  A    between atoms: _243  and  _246
REMARK   98  A    between atoms: _246  and  _247
REMARK   99  A    between atoms: _252  and  _253
REMARK  100  A    between atoms: _255  and  _257
REMARK  101  A    between atoms: _257  and  _258
REMARK  102  A    between atoms: _257  and  _260
REMARK  103  A    between atoms: _260  and  _261
REMARK  104  A    between atoms: _266  and  _267
REMARK  105  A    between atoms: _269  and  _271
REMARK  106  A    between atoms: _271  and  _272
REMARK  107  A    between atoms: _271  and  _274
REMARK  108  A    between atoms: _274  and  _275
REMARK  109  A    between atoms: _280  and  _282
REMARK  110  A    between atoms: _282  and  _283
REMARK  111  A    between atoms: _282  and  _285
REMARK  112  A    between atoms: _285  and  _286
REMARK  113  A    between atoms: _286  and  _287
REMARK  114  A    between atoms: _287  and  _288
REMARK  115  A    between atoms: _288  and  _289
REMARK  116  A    between atoms: _293  and  _295
REMARK  117  A    between atoms: _295  and  _296
REMARK  118  A    between atoms: _295  and  _298
REMARK  119  A    between atoms: _298  and  _299
REMARK  120  A    between atoms: _302  and  _304
REMARK  121  A    between atoms: _304  and  _305
REMARK  122  A    between atoms: _304  and  _307
REMARK  123  A    between atoms: _307  and  _308
REMARK  124  A    between atoms: _311  and  _313
REMARK  125  A    between atoms: _313  and  _314
REMARK  126  A    between atoms: _313  and  _316
REMARK  127  A    between atoms: _319  and  _321
REMARK  128  A    between atoms: _321  and  _322
REMARK  129  A    between atoms: _321  and  _324
REMARK  130  A    between atoms: _324  and  _325
REMARK  131  A    between atoms: _325  and  _326
REMARK  132  A    between atoms: _328  and  _330
REMARK  133  A    between atoms: _330  and  _331
REMARK                            x       y       z     vdW  Elec       q    Type
REMARK                         _______ _______ _______ _____ _____    ______ ____
ROOT
ATOM      1  C   MET A   1      -2.639  24.479   4.598  0.00  0.00    +0.238 C 
ATOM      2  N   PHE A   2      -2.439  25.703   4.147  0.00  0.00    -0.298 N 
ATOM      3  H   PHE A   2      -2.392  26.496   4.819  0.00  0.00    +0.150 HD
ATOM      4  O   MET A   1      -2.660  23.517   3.865  0.00  0.00    -0.274 OA
ENDROOT
BRANCH   1   5
ATOM      5  CA  MET A   1      -2.877  24.284   6.093  0.00  0.00    +0.146 C 
BRANCH   5   6
ATOM      6  N   MET A   1      -1.935  25.019   6.893  0.00  0.00    -0.238 NA
ATOM      7  H   MET A   1      -2.288  25.691   7.604  0.00  0.00    +0.142 HD
ENDBRANCH   5   6
BRANCH   5   8
ATOM      8  CB  MET A   1      -4.306  24.671   6.451  0.00  0.00    +0.038 C 
BRANCH   8   9
ATOM      9  CG  MET A   1      -5.349  23.900   5.677  0.00  0.00    +0.060 C 
BRANCH   9  10
ATOM     10  SD  MET A   1      -7.064  24.406   5.974  0.00  0.00    -0.139 S 
ATOM     11  CE  MET A   1      -7.215  25.903   5.015  0.00  0.00    +0.069 C 
ENDBRANCH   9  10
ENDBRANCH   8   9
ENDBRANCH   5   8
ENDBRANCH   1   5
BRANCH   2  12
ATOM     12  CA  PHE A   2      -2.280  25.964   2.699  0.00  0.00    +0.141 C 
BRANCH  12  13
ATOM     13  C   PHE A   2      -0.912  25.424   2.209  0.00  0.00    +0.227 C 
ATOM     14  O   PHE A   2      -0.799  24.745   1.181  0.00  0.00    -0.286 OA
ENDBRANCH  12  13
BRANCH  12  15
ATOM     15  CB  PHE A   2      -2.394  27.475   2.404  0.00  0.00    +0.054 C 
BRANCH  15  16
ATOM     16  CG  PHE A   2      -3.735  28.063   2.741  0.00  0.00    -0.020 A 
ATOM     17  CD2 PHE A   2      -3.824  29.189   3.526  0.00  0.00    -0.004 A 
ATOM     18  CE2 PHE A   2      -5.056  29.765   3.790  0.00  0.00    -0.000 A 
ATOM     19  CZ  PHE A   2      -6.210  29.218   3.266  0.00  0.00    -0.000 A 
ATOM     20  CE1 PHE A   2      -6.127  28.131   2.419  0.00  0.00    -0.000 A 
ATOM     21  CD1 PHE A   2      -4.901  27.564   2.153  0.00  0.00    -0.004 A 
ENDBRANCH  15  16
ENDBRANCH  12  15
ENDBRANCH   2  12
TORSDOF 9
REMARK  Name = ../refined-set-2016/4xya/4xya_pocket.pdb
REMARK  133 active torsions:
REMARK  status: ('A' for Active; 'I' for Inactive)
REMARK    1  A    between atoms: _1  and  _3
REMARK    2  A    between atoms: _3  and  _4
REMARK    3  A    between atoms: _7  and  _9
REMARK    4  A    between atoms: _9  and  _10
REMARK    5  A    between atoms: _9  and  _12
REMARK    6  A    between atoms: _12  and  _13
REMARK    7  A    between atoms: _24  and  _25
REMARK    8  A    between atoms: _30  and  _32
REMARK    9  A    between atoms: _32  and  _33
REMARK   10  A    between atoms: _32  and  _35
REMARK   11  A    between atoms: _35  and  _36
REMARK   12  A    between atoms: _42  and  _44
REMARK   13  A    between atoms: _44  and  _45
REMARK   14  A    between atoms: _44  and  _47
REMARK   15  A    between atoms: _47  and  _48
REMARK   16  A    between atoms: _48  and  _49
REMARK   17  A    between atoms: _54  and  _56
REMARK   18  A    between atoms: _56  and  _57
REMARK   19  A    between atoms: _56  and  _59
REMARK   20  A    between atoms: _59  and  _60
REMARK   21  A    between atoms: _60  and  _61
REMARK   22  A    between atoms: _67  and  _68
REMARK   23  A    between atoms: _73  and  _75
REMARK   24  A    between atoms: _75  and  _76
REMARK   25  A    between atoms: _75  and  _78
REMARK   26  A    between atoms: _81  and  _83
REMARK   27  A    between atoms: _83  and  _84
REMARK   28  A    between atoms: _83  and  _86
REMARK   29  A    between atoms: _86  and  _87
REMARK   30  A    between atoms: _90  and  _92
REMARK   31  A    between atoms: _92  and  _93
REMARK   32  A    between atoms: _96  and  _98
REMARK   33  A    between atoms: _98  and  _99
REMARK   34  A    between atoms: _98  and  _101
REMARK   35  A    between atoms: _101  and  _102
REMARK   36  A    between atoms: _102  and  _103
REMARK   37  A    between atoms: _103  and  _104
REMARK   38  A    between atoms: _104  and  _105
REMARK   39  A    between atoms: _109  and  _111
REMARK   40  A    between atoms: _111  and  _112
REMARK   41  A    between atoms: _111  and  _114
REMARK   42  A    between atoms: _114  and  _115
REMARK   43  A    between atoms: _118  and  _120
REMARK   44  A    between atoms: _120  and  _121
REMARK   45  A    between atoms: _120  and  _123
REMARK   46  A    between atoms: _123  and  _124
REMARK   47  A    between atoms: _129  and  _131
REMARK   48  A    between atoms: _131  and  _132
REMARK   49  A    between atoms: _131  and  _134
REMARK   50  A    between atoms: _134  and  _135
REMARK   51  A    between atoms: _138  and  _140
REMARK   52  A    between atoms: _140  and  _141
REMARK   53  A    between atoms: _140  and  _143
REMARK   54  A    between atoms: _143  and  _144
REMARK   55  A    between atoms: _149  and  _150
REMARK   56  A    between atoms: _152  and  _154
REMARK   57  A    between atoms: _154  and  _155
REMARK   58  A    between atoms: _154  and  _157
REMARK   59  A    between atoms: _157  and  _158
REMARK   60  A    between atoms: _163  and  _164
REMARK   61  A    between atoms: _166  and  _168
REMARK   62  A    between atoms: _168  and  _169
REMARK   63  A    between atoms: _168  and  _171
REMARK   64  A    between atoms: _171  and  _172
REMARK   65  A    between atoms: _175  and  _177
REMARK   66  A    between atoms: _177  and  _178
REMARK   67  A    between atoms: _177  and  _180
REMARK   68  A    between atoms: _180  and  _181
REMARK   69  A    between atoms: _181  and  _182
REMARK   70  A    between atoms: _184  and  _186
REMARK   71  A    between atoms: _186  and  _187
REMARK   72  A    between atoms: _186  and  _189
REMARK   73  A    between atoms: _189  and  _190
REMARK   74  A    between atoms: _193  and  _195
REMARK   75  A    between atoms: _195  and  _196
REMARK   76  A    between atoms: _195  and  _198
REMARK   77  A    between atoms: _198  and  _199
REMARK   78  A    between atoms: _199  and  _200
REMARK   79  A    between atoms: _202  and  _204
REMARK   80  A    between atoms: _204  and  _205
REMARK   81  A    between atoms: _204  and  _207
REMARK   82  A    between atoms: _207  and  _208
REMARK   83  A    between atoms: _208  and  _209
REMARK   84  A    between atoms: _211  and  _213
REMARK   85  A    between atoms: _213  and  _214
REMARK   86  A    between atoms: _213  and  _216
REMARK   87  A    between atoms: _216  and  _217
REMARK   88  A    between atoms: _223  and  _225
REMARK   89  A    between atoms: _225  and  _226
REMARK   90  A    between atoms: _225  and  _228
REMARK   91  A    between atoms: _228  and  _229
REMARK   92  A    between atoms: _234  and  _236
REMARK   93  A    between atoms: _236  and  _237
REMARK   94  A    between atoms: _236  and  _239
REMARK   95  A    between atoms: _241  and  _243
REMARK   96  A    between atoms: _243  and  _244
REMARK   97  A    between atoms: _243  and  _246
REMARK   98  A    between atoms: _246  and  _247
REMARK   99  A    between atoms: _252  and  _253
REMARK  100  A    between atoms: _255  and  _257
REMARK  101  A    between atoms: _257  and  _258
REMARK  102  A    between atoms: _257  and  _260
REMARK  103  A    between atoms: _260  and  _261
REMARK  104  A    between atoms: _266  and  _267
REMARK  105  A    between atoms: _269  and  _271
REMARK  106  A    between atoms: _271  and  _272
REMARK  107  A    between atoms: _271  and  _274
REMARK  108  A    between atoms: _274  and  _275
REMARK  109  A    between atoms: _280  and  _282
REMARK  110  A    between atoms: _282  and  _283
REMARK  111  A    between atoms: _282  and  _285
REMARK  112  A    between atoms: _285  and  _286
REMARK  113  A    between atoms: _286  and  _287
REMARK  114  A    between atoms: _287  and  _288
REMARK  115  A    between atoms: _288  and  _289
REMARK  116  A    between atoms: _293  and  _295
REMARK  117  A    between atoms: _295  and  _296
REMARK  118  A    between atoms: _295  and  _298
REMARK  119  A    between atoms: _298  and  _299
REMARK  120  A    between atoms: _302  and  _304
REMARK  121  A    between atoms: _304  and  _305
REMARK  122  A    between atoms: _304  and  _307
REMARK  123  A    between atoms: _307  and  _308
REMARK  124  A    between atoms: _311  and  _313
REMARK  125  A    between atoms: _313  and  _314
REMARK  126  A    between atoms: _313  and  _316
REMARK  127  A    between atoms: _319  and  _321
REMARK  128  A    between atoms: _321  and  _322
REMARK  129  A    between atoms: _321  and  _324
REMARK  130  A    between atoms: _324  and  _325
REMARK  131  A    between atoms: _325  and  _326
REMARK  132  A    between atoms: _328  and  _330
REMARK  133  A    between atoms: _330  and  _331
REMARK                            x       y       z     vdW  Elec       q    Type
REMARK                         _______ _______ _______ _____ _____    ______ ____
ROOT
ATOM      1  CA  CYS A   2      -1.306  21.302   0.548  0.00  0.00    +0.160 C 
ENDROOT
BRANCH   1   3
ATOM      2  C   ASN A   1       0.438  21.073   2.213  0.00  0.00    +0.239 C 
ATOM      3  N   CYS A   2      -0.686  21.686   1.801  0.00  0.00    -0.296 N 
ATOM      4  H   CYS A   2      -1.111  22.437   2.382  0.00  0.00    +0.150 HD
ATOM      5  O   ASN A   1       0.952  20.155   1.568  0.00  0.00    -0.274 OA
BRANCH   2   6
ATOM      6  CA  ASN A   1       1.021  21.556   3.526  0.00  0.00    +0.154 C 
BRANCH   6   7
ATOM      7  N   ASN A   1       1.011  23.037   3.589  0.00  0.00    -0.238 NA
ATOM      8  H   ASN A   1       0.558  23.519   4.392  0.00  0.00    +0.142 HD
ENDBRANCH   6   7
BRANCH   6   9
ATOM      9  CB  ASN A   1       0.126  20.986   4.654  0.00  0.00    +0.111 C 
BRANCH   9  10
ATOM     10  CG  ASN A   1       0.743  21.117   6.039  0.00  0.00    +0.221 C 
ATOM     11  ND2 ASN A   1      -0.082  20.802   7.061  0.00  0.00    -0.329 N 
ATOM     12 HD21 ASN A   1       0.261  20.856   8.041  0.00  0.00    +0.145 HD
ATOM     13 HD22 ASN A   1      -1.060  20.506   6.867  0.00  0.00    +0.145 HD
ATOM     14  OD1 ASN A   1       1.933  21.481   6.210  0.00  0.00    -0.275 OA
ENDBRANCH   9  10
ENDBRANCH   6   9
ENDBRANCH   2   6
ENDBRANCH   1   3
BRANCH   1  15
ATOM     15  C   CYS A   2      -0.301  21.485  -0.631  0.00  0.00    +0.242 C 
ATOM     16  N   TYR A   3       0.391  22.617  -0.653  0.00  0.00    -0.298 N 
ATOM     17  H   TYR A   3       0.274  23.313   0.111  0.00  0.00    +0.150 HD
ATOM     18  O   CYS A   2      -0.165  20.609  -1.505  0.00  0.00    -0.273 OA
BRANCH  16  19
ATOM     19  CA  TYR A   3       1.345  22.893  -1.782  0.00  0.00    +0.141 C 
BRANCH  19  20
ATOM     20  C   TYR A   3       2.584  22.043  -1.702  0.00  0.00    +0.227 C 
ATOM     21  O   TYR A   3       3.116  21.645  -2.741  0.00  0.00    -0.286 OA
ENDBRANCH  19  20
BRANCH  19  22
ATOM     22  CB  TYR A   3       1.737  24.364  -1.861  0.00  0.00    +0.054 C 
BRANCH  22  23
ATOM     23  CG  TYR A   3       0.568  25.340  -1.841  0.00  0.00    -0.020 A 
ATOM     24  CD2 TYR A   3       0.629  26.519  -1.092  0.00  0.00    -0.001 A 
ATOM     25  CE2 TYR A   3      -0.430  27.394  -1.049  0.00  0.00    +0.036 A 
ATOM     26  CZ  TYR A   3      -1.550  27.134  -1.809  0.00  0.00    +0.134 A 
ATOM     27  CE1 TYR A   3      -1.614  26.003  -2.554  0.00  0.00    +0.036 A 
ATOM     28  CD1 TYR A   3      -0.580  25.104  -2.559  0.00  0.00    -0.001 A 
BRANCH  26  29
ATOM     29  OH  TYR A   3      -2.607  27.996  -1.819  0.00  0.00    -0.506 OA
ATOM     30  HH  TYR A   3      -2.307  28.881  -2.145  0.00  0.00    +0.292 HD
ENDBRANCH  26  29
ENDBRANCH  22  23
ENDBRANCH  19  22
ENDBRANCH  16  19
ENDBRANCH   1  15
BRANCH   1  31
ATOM     31  CB  CYS A   2      -2.585  22.098   0.283  0.00  0.00    +0.098 C 
ATOM     32  SG  CYS A   2      -3.590  21.468  -1.077  0.00  0.00    -0.080 S 
ENDBRANCH   1  31
TORSDOF 12
REMARK  Name = ../refined-set-2016/4xya/4xya_pocket.pdb
REMARK  133 active torsions:
REMARK  status: ('A' for Active; 'I' for Inactive)
REMARK    1  A    between atoms: _1  and  _3
REMARK    2  A    between atoms: _3  and  _4
REMARK    3  A    between atoms: _7  and  _9
REMARK    4  A    between atoms: _9  and  _10
REMARK    5  A    between atoms: _9  and  _12
REMARK    6  A    between atoms: _12  and  _13
REMARK    7  A    between atoms: _24  and  _25
REMARK    8  A    between atoms: _30  and  _32
REMARK    9  A    between atoms: _32  and  _33
REMARK   10  A    between atoms: _32  and  _35
REMARK   11  A    between atoms: _35  and  _36
REMARK   12  A    between atoms: _42  and  _44
REMARK   13  A    between atoms: _44  and  _45
REMARK   14  A    between atoms: _44  and  _47
REMARK   15  A    between atoms: _47  and  _48
REMARK   16  A    between atoms: _48  and  _49
REMARK   17  A    between atoms: _54  and  _56
REMARK   18  A    between atoms: _56  and  _57
REMARK   19  A    between atoms: _56  and  _59
REMARK   20  A    between atoms: _59  and  _60
REMARK   21  A    between atoms: _60  and  _61
REMARK   22  A    between atoms: _67  and  _68
REMARK   23  A    between atoms: _73  and  _75
REMARK   24  A    between atoms: _75  and  _76
REMARK   25  A    between atoms: _75  and  _78
REMARK   26  A    between atoms: _81  and  _83
REMARK   27  A    between atoms: _83  and  _84
REMARK   28  A    between atoms: _83  and  _86
REMARK   29  A    between atoms: _86  and  _87
REMARK   30  A    between atoms: _90  and  _92
REMARK   31  A    between atoms: _92  and  _93
REMARK   32  A    between atoms: _96  and  _98
REMARK   33  A    between atoms: _98  and  _99
REMARK   34  A    between atoms: _98  and  _101
REMARK   35  A    between atoms: _101  and  _102
REMARK   36  A    between atoms: _102  and  _103
REMARK   37  A    between atoms: _103  and  _104
REMARK   38  A    between atoms: _104  and  _105
REMARK   39  A    between atoms: _109  and  _111
REMARK   40  A    between atoms: _111  and  _112
REMARK   41  A    between atoms: _111  and  _114
REMARK   42  A    between atoms: _114  and  _115
REMARK   43  A    between atoms: _118  and  _120
REMARK   44  A    between atoms: _120  and  _121
REMARK   45  A    between atoms: _120  and  _123
REMARK   46  A    between atoms: _123  and  _124
REMARK   47  A    between atoms: _129  and  _131
REMARK   48  A    between atoms: _131  and  _132
REMARK   49  A    between atoms: _131  and  _134
REMARK   50  A    between atoms: _134  and  _135
REMARK   51  A    between atoms: _138  and  _140
REMARK   52  A    between atoms: _140  and  _141
REMARK   53  A    between atoms: _140  and  _143
REMARK   54  A    between atoms: _143  and  _144
REMARK   55  A    between atoms: _149  and  _150
REMARK   56  A    between atoms: _152  and  _154
REMARK   57  A    between atoms: _154  and  _155
REMARK   58  A    between atoms: _154  and  _157
REMARK   59  A    between atoms: _157  and  _158
REMARK   60  A    between atoms: _163  and  _164
REMARK   61  A    between atoms: _166  and  _168
REMARK   62  A    between atoms: _168  and  _169
REMARK   63  A    between atoms: _168  and  _171
REMARK   64  A    between atoms: _171  and  _172
REMARK   65  A    between atoms: _175  and  _177
REMARK   66  A    between atoms: _177  and  _178
REMARK   67  A    between atoms: _177  and  _180
REMARK   68  A    between atoms: _180  and  _181
REMARK   69  A    between atoms: _181  and  _182
REMARK   70  A    between atoms: _184  and  _186
REMARK   71  A    between atoms: _186  and  _187
REMARK   72  A    between atoms: _186  and  _189
REMARK   73  A    between atoms: _189  and  _190
REMARK   74  A    between atoms: _193  and  _195
REMARK   75  A    between atoms: _195  and  _196
REMARK   76  A    between atoms: _195  and  _198
REMARK   77  A    between atoms: _198  and  _199
REMARK   78  A    between atoms: _199  and  _200
REMARK   79  A    between atoms: _202  and  _204
REMARK   80  A    between atoms: _204  and  _205
REMARK   81  A    between atoms: _204  and  _207
REMARK   82  A    between atoms: _207  and  _208
REMARK   83  A    between atoms: _208  and  _209
REMARK   84  A    between atoms: _211  and  _213
REMARK   85  A    between atoms: _213  and  _214
REMARK   86  A    between atoms: _213  and  _216
REMARK   87  A    between atoms: _216  and  _217
REMARK   88  A    between atoms: _223  and  _225
REMARK   89  A    between atoms: _225  and  _226
REMARK   90  A    between atoms: _225  and  _228
REMARK   91  A    between atoms: _228  and  _229
REMARK   92  A    between atoms: _234  and  _236
REMARK   93  A    between atoms: _236  and  _237
REMARK   94  A    between atoms: _236  and  _239
REMARK   95  A    between atoms: _241  and  _243
REMARK   96  A    between atoms: _243  and  _244
REMARK   97  A    between atoms: _243  and  _246
REMARK   98  A    between atoms: _246  and  _247
REMARK   99  A    between atoms: _252  and  _253
REMARK  100  A    between atoms: _255  and  _257
REMARK  101  A    between atoms: _257  and  _258
REMARK  102  A    between atoms: _257  and  _260
REMARK  103  A    between atoms: _260  and  _261
REMARK  104  A    between atoms: _266  and  _267
REMARK  105  A    between atoms: _269  and  _271
REMARK  106  A    between atoms: _271  and  _272
REMARK  107  A    between atoms: _271  and  _274
REMARK  108  A    between atoms: _274  and  _275
REMARK  109  A    between atoms: _280  and  _282
REMARK  110  A    between atoms: _282  and  _283
REMARK  111  A    between atoms: _282  and  _285
REMARK  112  A    between atoms: _285  and  _286
REMARK  113  A    between atoms: _286  and  _287
REMARK  114  A    between atoms: _287  and  _288
REMARK  115  A    between atoms: _288  and  _289
REMARK  116  A    between atoms: _293  and  _295
REMARK  117  A    between atoms: _295  and  _296
REMARK  118  A    between atoms: _295  and  _298
REMARK  119  A    between atoms: _298  and  _299
REMARK  120  A    between atoms: _302  and  _304
REMARK  121  A    between atoms: _304  and  _305
REMARK  122  A    between atoms: _304  and  _307
REMARK  123  A    between atoms: _307  and  _308
REMARK  124  A    between atoms: _311  and  _313
REMARK  125  A    between atoms: _313  and  _314
REMARK  126  A    between atoms: _313  and  _316
REMARK  127  A    between atoms: _319  and  _321
REMARK  128  A    between atoms: _321  and  _322
REMARK  129  A    between atoms: _321  and  _324
REMARK  130  A    between atoms: _324  and  _325
REMARK  131  A    between atoms: _325  and  _326
REMARK  132  A    between atoms: _328  and  _330
REMARK  133  A    between atoms: _330  and  _331
REMARK                            x       y       z     vdW  Elec       q    Type
REMARK                         _______ _______ _______ _____ _____    ______ ____
ROOT
ATOM      1  CA  ASN A   2       0.543  17.945  -3.904  0.00  0.00    +0.158 C 
ENDROOT
BRANCH   1   2
ATOM      2  C   ASN A   2       1.341  18.470  -5.103  0.00  0.00    +0.241 C 
ATOM      3  O   ASN A   2       2.278  19.255  -4.985  0.00  0.00    -0.273 OA
ATOM      4  N   LYS A   3       0.947  17.978  -6.257  0.00  0.00    -0.298 N 
ATOM      5  H   LYS A   3       0.135  17.328  -6.275  0.00  0.00    +0.150 HD
BRANCH   4   6
ATOM      6  CA  LYS A   3       1.604  18.309  -7.504  0.00  0.00    +0.137 C 
BRANCH   6   7
ATOM      7  C   LYS A   3       1.082  19.667  -7.962  0.00  0.00    +0.227 C 
ATOM      8  O   LYS A   3      -0.137  19.913  -7.924  0.00  0.00    -0.286 OA
ENDBRANCH   6   7
BRANCH   6   9
ATOM      9  CB  LYS A   3       1.309  17.220  -8.540  0.00  0.00    +0.028 C 
BRANCH   9  10
ATOM     10  CG  LYS A   3       2.276  17.194  -9.692  0.00  0.00    -0.000 C 
BRANCH  10  11
ATOM     11  CD  LYS A   3       2.034  15.976 -10.582  0.00  0.00    -0.024 C 
BRANCH  11  12
ATOM     12  CE  LYS A   3       0.693  16.063 -11.293  0.00  0.00    -0.086 C 
BRANCH  12  13
ATOM     13  NZ  LYS A   3      -0.317  15.177 -10.643  0.00  0.00    +0.380 N 
ATOM     14  HZ1 LYS A   3      -0.445  15.468  -9.653  0.00  0.00    -0.089 HD
ATOM     15  HZ2 LYS A   3       0.015  14.192 -10.676  0.00  0.00    -0.089 HD
ATOM     16  HZ3 LYS A   3      -1.222  15.256 -11.149  0.00  0.00    -0.089 HD
ENDBRANCH  12  13
ENDBRANCH  11  12
ENDBRANCH  10  11
ENDBRANCH   9  10
ENDBRANCH   6   9
ENDBRANCH   4   6
ENDBRANCH   1   2
BRANCH   1  18
ATOM     17  C   TYR A   1       1.999  17.241  -2.150  0.00  0.00    +0.239 C 
ATOM     18  N   ASN A   2       1.169  18.145  -2.635  0.00  0.00    -0.297 N 
ATOM     19  H   ASN A   2       0.969  19.008  -2.090  0.00  0.00    +0.150 HD
ATOM     20  O   TYR A   1       2.383  16.263  -2.804  0.00  0.00    -0.274 OA
BRANCH  17  21
ATOM     21  CA  TYR A   1       2.385  17.447  -0.691  0.00  0.00    +0.149 C 
BRANCH  21  22
ATOM     22  N   TYR A   1       2.660  18.861  -0.399  0.00  0.00    -0.238 NA
ATOM     23  H   TYR A   1       1.948  19.452   0.077  0.00  0.00    +0.142 HD
ENDBRANCH  21  22
BRANCH  21  24
ATOM     24  CB  TYR A   1       1.254  16.905   0.204  0.00  0.00    +0.053 C 
BRANCH  24  25
ATOM     25  CG  TYR A   1       0.907  15.474  -0.135  0.00  0.00    -0.020 A 
ATOM     26  CD2 TYR A   1       1.761  14.432   0.226  0.00  0.00    -0.001 A 
ATOM     27  CE2 TYR A   1       1.481  13.134  -0.130  0.00  0.00    +0.036 A 
ATOM     28  CZ  TYR A   1       0.296  12.856  -0.841  0.00  0.00    +0.134 A 
ATOM     29  CE1 TYR A   1      -0.541  13.859  -1.179  0.00  0.00    +0.036 A 
ATOM     30  CD1 TYR A   1      -0.243  15.169  -0.839  0.00  0.00    -0.001 A 
BRANCH  28  31
ATOM     31  OH  TYR A   1      -0.005  11.556  -1.194  0.00  0.00    -0.506 OA
ATOM     32  HH  TYR A   1       0.710  10.953  -0.870  0.00  0.00    +0.292 HD
ENDBRANCH  28  31
ENDBRANCH  24  25
ENDBRANCH  21  24
ENDBRANCH  17  21
ENDBRANCH   1  18
BRANCH   1  33
ATOM     33  CB  ASN A   2      -0.862  18.529  -3.867  0.00  0.00    +0.114 C 
BRANCH  33  34
ATOM     34  CG  ASN A   2      -1.783  17.706  -2.985  0.00  0.00    +0.222 C 
ATOM     35  ND2 ASN A   2      -2.227  18.276  -1.932  0.00  0.00    -0.329 N 
ATOM     36 HD21 ASN A   2      -2.865  17.761  -1.292  0.00  0.00    +0.145 HD
ATOM     37 HD22 ASN A   2      -1.951  19.255  -1.715  0.00  0.00    +0.145 HD
ATOM     38  OD1 ASN A   2      -2.078  16.551  -3.288  0.00  0.00    -0.275 OA
ENDBRANCH  33  34
ENDBRANCH   1  33
TORSDOF 16
REMARK  Name = ../refined-set-2016/4xya/4xya_pocket.pdb
REMARK  133 active torsions:
REMARK  status: ('A' for Active; 'I' for Inactive)
REMARK    1  A    between atoms: _1  and  _3
REMARK    2  A    between atoms: _3  and  _4
REMARK    3  A    between atoms: _7  and  _9
REMARK    4  A    between atoms: _9  and  _10
REMARK    5  A    between atoms: _9  and  _12
REMARK    6  A    between atoms: _12  and  _13
REMARK    7  A    between atoms: _24  and  _25
REMARK    8  A    between atoms: _30  and  _32
REMARK    9  A    between atoms: _32  and  _33
REMARK   10  A    between atoms: _32  and  _35
REMARK   11  A    between atoms: _35  and  _36
REMARK   12  A    between atoms: _42  and  _44
REMARK   13  A    between atoms: _44  and  _45
REMARK   14  A    between atoms: _44  and  _47
REMARK   15  A    between atoms: _47  and  _48
REMARK   16  A    between atoms: _48  and  _49
REMARK   17  A    between atoms: _54  and  _56
REMARK   18  A    between atoms: _56  and  _57
REMARK   19  A    between atoms: _56  and  _59
REMARK   20  A    between atoms: _59  and  _60
REMARK   21  A    between atoms: _60  and  _61
REMARK   22  A    between atoms: _67  and  _68
REMARK   23  A    between atoms: _73  and  _75
REMARK   24  A    between atoms: _75  and  _76
REMARK   25  A    between atoms: _75  and  _78
REMARK   26  A    between atoms: _81  and  _83
REMARK   27  A    between atoms: _83  and  _84
REMARK   28  A    between atoms: _83  and  _86
REMARK   29  A    between atoms: _86  and  _87
REMARK   30  A    between atoms: _90  and  _92
REMARK   31  A    between atoms: _92  and  _93
REMARK   32  A    between atoms: _96  and  _98
REMARK   33  A    between atoms: _98  and  _99
REMARK   34  A    between atoms: _98  and  _101
REMARK   35  A    between atoms: _101  and  _102
REMARK   36  A    between atoms: _102  and  _103
REMARK   37  A    between atoms: _103  and  _104
REMARK   38  A    between atoms: _104  and  _105
REMARK   39  A    between atoms: _109  and  _111
REMARK   40  A    between atoms: _111  and  _112
REMARK   41  A    between atoms: _111  and  _114
REMARK   42  A    between atoms: _114  and  _115
REMARK   43  A    between atoms: _118  and  _120
REMARK   44  A    between atoms: _120  and  _121
REMARK   45  A    between atoms: _120  and  _123
REMARK   46  A    between atoms: _123  and  _124
REMARK   47  A    between atoms: _129  and  _131
REMARK   48  A    between atoms: _131  and  _132
REMARK   49  A    between atoms: _131  and  _134
REMARK   50  A    between atoms: _134  and  _135
REMARK   51  A    between atoms: _138  and  _140
REMARK   52  A    between atoms: _140  and  _141
REMARK   53  A    between atoms: _140  and  _143
REMARK   54  A    between atoms: _143  and  _144
REMARK   55  A    between atoms: _149  and  _150
REMARK   56  A    between atoms: _152  and  _154
REMARK   57  A    between atoms: _154  and  _155
REMARK   58  A    between atoms: _154  and  _157
REMARK   59  A    between atoms: _157  and  _158
REMARK   60  A    between atoms: _163  and  _164
REMARK   61  A    between atoms: _166  and  _168
REMARK   62  A    between atoms: _168  and  _169
REMARK   63  A    between atoms: _168  and  _171
REMARK   64  A    between atoms: _171  and  _172
REMARK   65  A    between atoms: _175  and  _177
REMARK   66  A    between atoms: _177  and  _178
REMARK   67  A    between atoms: _177  and  _180
REMARK   68  A    between atoms: _180  and  _181
REMARK   69  A    between atoms: _181  and  _182
REMARK   70  A    between atoms: _184  and  _186
REMARK   71  A    between atoms: _186  and  _187
REMARK   72  A    between atoms: _186  and  _189
REMARK   73  A    between atoms: _189  and  _190
REMARK   74  A    between atoms: _193  and  _195
REMARK   75  A    between atoms: _195  and  _196
REMARK   76  A    between atoms: _195  and  _198
REMARK   77  A    between atoms: _198  and  _199
REMARK   78  A    between atoms: _199  and  _200
REMARK   79  A    between atoms: _202  and  _204
REMARK   80  A    between atoms: _204  and  _205
REMARK   81  A    between atoms: _204  and  _207
REMARK   82  A    between atoms: _207  and  _208
REMARK   83  A    between atoms: _208  and  _209
REMARK   84  A    between atoms: _211  and  _213
REMARK   85  A    between atoms: _213  and  _214
REMARK   86  A    between atoms: _213  and  _216
REMARK   87  A    between atoms: _216  and  _217
REMARK   88  A    between atoms: _223  and  _225
REMARK   89  A    between atoms: _225  and  _226
REMARK   90  A    between atoms: _225  and  _228
REMARK   91  A    between atoms: _228  and  _229
REMARK   92  A    between atoms: _234  and  _236
REMARK   93  A    between atoms: _236  and  _237
REMARK   94  A    between atoms: _236  and  _239
REMARK   95  A    between atoms: _241  and  _243
REMARK   96  A    between atoms: _243  and  _244
REMARK   97  A    between atoms: _243  and  _246
REMARK   98  A    between atoms: _246  and  _247
REMARK   99  A    between atoms: _252  and  _253
REMARK  100  A    between atoms: _255  and  _257
REMARK  101  A    between atoms: _257  and  _258
REMARK  102  A    between atoms: _257  and  _260
REMARK  103  A    between atoms: _260  and  _261
REMARK  104  A    between atoms: _266  and  _267
REMARK  105  A    between atoms: _269  and  _271
REMARK  106  A    between atoms: _271  and  _272
REMARK  107  A    between atoms: _271  and  _274
REMARK  108  A    between atoms: _274  and  _275
REMARK  109  A    between atoms: _280  and  _282
REMARK  110  A    between atoms: _282  and  _283
REMARK  111  A    between atoms: _282  and  _285
REMARK  112  A    between atoms: _285  and  _286
REMARK  113  A    between atoms: _286  and  _287
REMARK  114  A    between atoms: _287  and  _288
REMARK  115  A    between atoms: _288  and  _289
REMARK  116  A    between atoms: _293  and  _295
REMARK  117  A    between atoms: _295  and  _296
REMARK  118  A    between atoms: _295  and  _298
REMARK  119  A    between atoms: _298  and  _299
REMARK  120  A    between atoms: _302  and  _304
REMARK  121  A    between atoms: _304  and  _305
REMARK  122  A    between atoms: _304  and  _307
REMARK  123  A    between atoms: _307  and  _308
REMARK  124  A    between atoms: _311  and  _313
REMARK  125  A    between atoms: _313  and  _314
REMARK  126  A    between atoms: _313  and  _316
REMARK  127  A    between atoms: _319  and  _321
REMARK  128  A    between atoms: _321  and  _322
REMARK  129  A    between atoms: _321  and  _324
REMARK  130  A    between atoms: _324  and  _325
REMARK  131  A    between atoms: _325  and  _326
REMARK  132  A    between atoms: _328  and  _330
REMARK  133  A    between atoms: _330  and  _331
REMARK                            x       y       z     vdW  Elec       q    Type
REMARK                         _______ _______ _______ _____ _____    ______ ____
ROOT
ATOM      1  CA  ASP A   1      -3.588  19.644  -9.316  0.00  0.00    +0.144 C 
ENDROOT
BRANCH   1   2
ATOM      2  N   ASP A   1      -2.512  20.596  -9.662  0.00  0.00    -0.239 NA
ATOM      3  H   ASP A   1      -1.627  20.591  -9.116  0.00  0.00    +0.142 HD
ENDBRANCH   1   2
BRANCH   1   4
ATOM      4  C   ASP A   1      -4.832  20.429  -8.842  0.00  0.00    +0.225 C 
ATOM      5  O   ASP A   1      -4.703  21.540  -8.345  0.00  0.00    -0.287 OA
ENDBRANCH   1   4
BRANCH   1   6
ATOM      6  CB  ASP A   1      -3.162  18.646  -8.238  0.00  0.00    +0.139 C 
BRANCH   6   7
ATOM      7  CG  ASP A   1      -2.432  17.425  -8.821  0.00  0.00    +0.367 C 
ATOM      8  OD2 ASP A   1      -2.066  16.558  -8.013  0.00  0.00    -0.246 OA
ATOM      9  OD1 ASP A   1      -2.239  17.321 -10.065  0.00  0.00    -0.246 OA
ENDBRANCH   6   7
ENDBRANCH   1   6
TORSDOF 4
REMARK  Name = ../refined-set-2016/4xya/4xya_pocket.pdb
REMARK  133 active torsions:
REMARK  status: ('A' for Active; 'I' for Inactive)
REMARK    1  A    between atoms: _1  and  _3
REMARK    2  A    between atoms: _3  and  _4
REMARK    3  A    between atoms: _7  and  _9
REMARK    4  A    between atoms: _9  and  _10
REMARK    5  A    between atoms: _9  and  _12
REMARK    6  A    between atoms: _12  and  _13
REMARK    7  A    between atoms: _24  and  _25
REMARK    8  A    between atoms: _30  and  _32
REMARK    9  A    between atoms: _32  and  _33
REMARK   10  A    between atoms: _32  and  _35
REMARK   11  A    between atoms: _35  and  _36
REMARK   12  A    between atoms: _42  and  _44
REMARK   13  A    between atoms: _44  and  _45
REMARK   14  A    between atoms: _44  and  _47
REMARK   15  A    between atoms: _47  and  _48
REMARK   16  A    between atoms: _48  and  _49
REMARK   17  A    between atoms: _54  and  _56
REMARK   18  A    between atoms: _56  and  _57
REMARK   19  A    between atoms: _56  and  _59
REMARK   20  A    between atoms: _59  and  _60
REMARK   21  A    between atoms: _60  and  _61
REMARK   22  A    between atoms: _67  and  _68
REMARK   23  A    between atoms: _73  and  _75
REMARK   24  A    between atoms: _75  and  _76
REMARK   25  A    between atoms: _75  and  _78
REMARK   26  A    between atoms: _81  and  _83
REMARK   27  A    between atoms: _83  and  _84
REMARK   28  A    between atoms: _83  and  _86
REMARK   29  A    between atoms: _86  and  _87
REMARK   30  A    between atoms: _90  and  _92
REMARK   31  A    between atoms: _92  and  _93
REMARK   32  A    between atoms: _96  and  _98
REMARK   33  A    between atoms: _98  and  _99
REMARK   34  A    between atoms: _98  and  _101
REMARK   35  A    between atoms: _101  and  _102
REMARK   36  A    between atoms: _102  and  _103
REMARK   37  A    between atoms: _103  and  _104
REMARK   38  A    between atoms: _104  and  _105
REMARK   39  A    between atoms: _109  and  _111
REMARK   40  A    between atoms: _111  and  _112
REMARK   41  A    between atoms: _111  and  _114
REMARK   42  A    between atoms: _114  and  _115
REMARK   43  A    between atoms: _118  and  _120
REMARK   44  A    between atoms: _120  and  _121
REMARK   45  A    between atoms: _120  and  _123
REMARK   46  A    between atoms: _123  and  _124
REMARK   47  A    between atoms: _129  and  _131
REMARK   48  A    between atoms: _131  and  _132
REMARK   49  A    between atoms: _131  and  _134
REMARK   50  A    between atoms: _134  and  _135
REMARK   51  A    between atoms: _138  and  _140
REMARK   52  A    between atoms: _140  and  _141
REMARK   53  A    between atoms: _140  and  _143
REMARK   54  A    between atoms: _143  and  _144
REMARK   55  A    between atoms: _149  and  _150
REMARK   56  A    between atoms: _152  and  _154
REMARK   57  A    between atoms: _154  and  _155
REMARK   58  A    between atoms: _154  and  _157
REMARK   59  A    between atoms: _157  and  _158
REMARK   60  A    between atoms: _163  and  _164
REMARK   61  A    between atoms: _166  and  _168
REMARK   62  A    between atoms: _168  and  _169
REMARK   63  A    between atoms: _168  and  _171
REMARK   64  A    between atoms: _171  and  _172
REMARK   65  A    between atoms: _175  and  _177
REMARK   66  A    between atoms: _177  and  _178
REMARK   67  A    between atoms: _177  and  _180
REMARK   68  A    between atoms: _180  and  _181
REMARK   69  A    between atoms: _181  and  _182
REMARK   70  A    between atoms: _184  and  _186
REMARK   71  A    between atoms: _186  and  _187
REMARK   72  A    between atoms: _186  and  _189
REMARK   73  A    between atoms: _189  and  _190
REMARK   74  A    between atoms: _193  and  _195
REMARK   75  A    between atoms: _195  and  _196
REMARK   76  A    between atoms: _195  and  _198
REMARK   77  A    between atoms: _198  and  _199
REMARK   78  A    between atoms: _199  and  _200
REMARK   79  A    between atoms: _202  and  _204
REMARK   80  A    between atoms: _204  and  _205
REMARK   81  A    between atoms: _204  and  _207
REMARK   82  A    between atoms: _207  and  _208
REMARK   83  A    between atoms: _208  and  _209
REMARK   84  A    between atoms: _211  and  _213
REMARK   85  A    between atoms: _213  and  _214
REMARK   86  A    between atoms: _213  and  _216
REMARK   87  A    between atoms: _216  and  _217
REMARK   88  A    between atoms: _223  and  _225
REMARK   89  A    between atoms: _225  and  _226
REMARK   90  A    between atoms: _225  and  _228
REMARK   91  A    between atoms: _228  and  _229
REMARK   92  A    between atoms: _234  and  _236
REMARK   93  A    between atoms: _236  and  _237
REMARK   94  A    between atoms: _236  and  _239
REMARK   95  A    between atoms: _241  and  _243
REMARK   96  A    between atoms: _243  and  _244
REMARK   97  A    between atoms: _243  and  _246
REMARK   98  A    between atoms: _246  and  _247
REMARK   99  A    between atoms: _252  and  _253
REMARK  100  A    between atoms: _255  and  _257
REMARK  101  A    between atoms: _257  and  _258
REMARK  102  A    between atoms: _257  and  _260
REMARK  103  A    between atoms: _260  and  _261
REMARK  104  A    between atoms: _266  and  _267
REMARK  105  A    between atoms: _269  and  _271
REMARK  106  A    between atoms: _271  and  _272
REMARK  107  A    between atoms: _271  and  _274
REMARK  108  A    between atoms: _274  and  _275
REMARK  109  A    between atoms: _280  and  _282
REMARK  110  A    between atoms: _282  and  _283
REMARK  111  A    between atoms: _282  and  _285
REMARK  112  A    between atoms: _285  and  _286
REMARK  113  A    between atoms: _286  and  _287
REMARK  114  A    between atoms: _287  and  _288
REMARK  115  A    between atoms: _288  and  _289
REMARK  116  A    between atoms: _293  and  _295
REMARK  117  A    between atoms: _295  and  _296
REMARK  118  A    between atoms: _295  and  _298
REMARK  119  A    between atoms: _298  and  _299
REMARK  120  A    between atoms: _302  and  _304
REMARK  121  A    between atoms: _304  and  _305
REMARK  122  A    between atoms: _304  and  _307
REMARK  123  A    between atoms: _307  and  _308
REMARK  124  A    between atoms: _311  and  _313
REMARK  125  A    between atoms: _313  and  _314
REMARK  126  A    between atoms: _313  and  _316
REMARK  127  A    between atoms: _319  and  _321
REMARK  128  A    between atoms: _321  and  _322
REMARK  129  A    between atoms: _321  and  _324
REMARK  130  A    between atoms: _324  and  _325
REMARK  131  A    between atoms: _325  and  _326
REMARK  132  A    between atoms: _328  and  _330
REMARK  133  A    between atoms: _330  and  _331
REMARK                            x       y       z     vdW  Elec       q    Type
REMARK                         _______ _______ _______ _____ _____    ______ ____
ROOT
ATOM      1  C   ILE A   1      -5.717  21.636  -4.523  0.00  0.00    +0.238 C 
ATOM      2  O   ILE A   1      -6.035  22.417  -3.650  0.00  0.00    -0.274 OA
ATOM      3  N   VAL A   2      -4.685  21.851  -5.337  0.00  0.00    -0.298 N 
ATOM      4  H   VAL A   2      -4.459  21.133  -6.054  0.00  0.00    +0.150 HD
ENDROOT
BRANCH   1   5
ATOM      5  CA  ILE A   1      -6.569  20.379  -4.801  0.00  0.00    +0.145 C 
BRANCH   5   6
ATOM      6  N   ILE A   1      -6.674  20.057  -6.235  0.00  0.00    -0.238 NA
ATOM      7  H   ILE A   1      -6.349  19.128  -6.571  0.00  0.00    +0.142 HD
ENDBRANCH   5   6
BRANCH   5   8
ATOM      8  CB  ILE A   1      -6.095  19.160  -4.007  0.00  0.00    +0.025 C 
ATOM      9  CG2 ILE A   1      -4.636  18.786  -4.359  0.00  0.00    +0.002 C 
BRANCH   8  10
ATOM     10  CG1 ILE A   1      -6.282  19.414  -2.501  0.00  0.00    +0.002 C 
ATOM     11  CD1 ILE A   1      -7.749  19.332  -2.063  0.00  0.00    +0.000 C 
ENDBRANCH   8  10
ENDBRANCH   5   8
ENDBRANCH   1   5
BRANCH   3  12
ATOM     12  CA  VAL A   2      -3.856  23.054  -5.265  0.00  0.00    +0.137 C 
BRANCH  12  13
ATOM     13  CB  VAL A   2      -2.558  22.862  -6.086  0.00  0.00    +0.026 C 
ATOM     14  CG2 VAL A   2      -1.711  21.781  -5.425  0.00  0.00    +0.002 C 
ATOM     15  CG1 VAL A   2      -1.796  24.192  -6.244  0.00  0.00    +0.002 C 
ENDBRANCH  12  13
BRANCH  12  16
ATOM     16  C   VAL A   2      -4.653  24.291  -5.715  0.00  0.00    +0.227 C 
ATOM     17  O   VAL A   2      -4.640  25.313  -5.051  0.00  0.00    -0.286 OA
ENDBRANCH  12  16
ENDBRANCH   3  12
TORSDOF 7
REMARK  Name = ../refined-set-2016/4xya/4xya_pocket.pdb
REMARK  133 active torsions:
REMARK  status: ('A' for Active; 'I' for Inactive)
REMARK    1  A    between atoms: _1  and  _3
REMARK    2  A    between atoms: _3  and  _4
REMARK    3  A    between atoms: _7  and  _9
REMARK    4  A    between atoms: _9  and  _10
REMARK    5  A    between atoms: _9  and  _12
REMARK    6  A    between atoms: _12  and  _13
REMARK    7  A    between atoms: _24  and  _25
REMARK    8  A    between atoms: _30  and  _32
REMARK    9  A    between atoms: _32  and  _33
REMARK   10  A    between atoms: _32  and  _35
REMARK   11  A    between atoms: _35  and  _36
REMARK   12  A    between atoms: _42  and  _44
REMARK   13  A    between atoms: _44  and  _45
REMARK   14  A    between atoms: _44  and  _47
REMARK   15  A    between atoms: _47  and  _48
REMARK   16  A    between atoms: _48  and  _49
REMARK   17  A    between atoms: _54  and  _56
REMARK   18  A    between atoms: _56  and  _57
REMARK   19  A    between atoms: _56  and  _59
REMARK   20  A    between atoms: _59  and  _60
REMARK   21  A    between atoms: _60  and  _61
REMARK   22  A    between atoms: _67  and  _68
REMARK   23  A    between atoms: _73  and  _75
REMARK   24  A    between atoms: _75  and  _76
REMARK   25  A    between atoms: _75  and  _78
REMARK   26  A    between atoms: _81  and  _83
REMARK   27  A    between atoms: _83  and  _84
REMARK   28  A    between atoms: _83  and  _86
REMARK   29  A    between atoms: _86  and  _87
REMARK   30  A    between atoms: _90  and  _92
REMARK   31  A    between atoms: _92  and  _93
REMARK   32  A    between atoms: _96  and  _98
REMARK   33  A    between atoms: _98  and  _99
REMARK   34  A    between atoms: _98  and  _101
REMARK   35  A    between atoms: _101  and  _102
REMARK   36  A    between atoms: _102  and  _103
REMARK   37  A    between atoms: _103  and  _104
REMARK   38  A    between atoms: _104  and  _105
REMARK   39  A    between atoms: _109  and  _111
REMARK   40  A    between atoms: _111  and  _112
REMARK   41  A    between atoms: _111  and  _114
REMARK   42  A    between atoms: _114  and  _115
REMARK   43  A    between atoms: _118  and  _120
REMARK   44  A    between atoms: _120  and  _121
REMARK   45  A    between atoms: _120  and  _123
REMARK   46  A    between atoms: _123  and  _124
REMARK   47  A    between atoms: _129  and  _131
REMARK   48  A    between atoms: _131  and  _132
REMARK   49  A    between atoms: _131  and  _134
REMARK   50  A    between atoms: _134  and  _135
REMARK   51  A    between atoms: _138  and  _140
REMARK   52  A    between atoms: _140  and  _141
REMARK   53  A    between atoms: _140  and  _143
REMARK   54  A    between atoms: _143  and  _144
REMARK   55  A    between atoms: _149  and  _150
REMARK   56  A    between atoms: _152  and  _154
REMARK   57  A    between atoms: _154  and  _155
REMARK   58  A    between atoms: _154  and  _157
REMARK   59  A    between atoms: _157  and  _158
REMARK   60  A    between atoms: _163  and  _164
REMARK   61  A    between atoms: _166  and  _168
REMARK   62  A    between atoms: _168  and  _169
REMARK   63  A    between atoms: _168  and  _171
REMARK   64  A    between atoms: _171  and  _172
REMARK   65  A    between atoms: _175  and  _177
REMARK   66  A    between atoms: _177  and  _178
REMARK   67  A    between atoms: _177  and  _180
REMARK   68  A    between atoms: _180  and  _181
REMARK   69  A    between atoms: _181  and  _182
REMARK   70  A    between atoms: _184  and  _186
REMARK   71  A    between atoms: _186  and  _187
REMARK   72  A    between atoms: _186  and  _189
REMARK   73  A    between atoms: _189  and  _190
REMARK   74  A    between atoms: _193  and  _195
REMARK   75  A    between atoms: _195  and  _196
REMARK   76  A    between atoms: _195  and  _198
REMARK   77  A    between atoms: _198  and  _199
REMARK   78  A    between atoms: _199  and  _200
REMARK   79  A    between atoms: _202  and  _204
REMARK   80  A    between atoms: _204  and  _205
REMARK   81  A    between atoms: _204  and  _207
REMARK   82  A    between atoms: _207  and  _208
REMARK   83  A    between atoms: _208  and  _209
REMARK   84  A    between atoms: _211  and  _213
REMARK   85  A    between atoms: _213  and  _214
REMARK   86  A    between atoms: _213  and  _216
REMARK   87  A    between atoms: _216  and  _217
REMARK   88  A    between atoms: _223  and  _225
REMARK   89  A    between atoms: _225  and  _226
REMARK   90  A    between atoms: _225  and  _228
REMARK   91  A    between atoms: _228  and  _229
REMARK   92  A    between atoms: _234  and  _236
REMARK   93  A    between atoms: _236  and  _237
REMARK   94  A    between atoms: _236  and  _239
REMARK   95  A    between atoms: _241  and  _243
REMARK   96  A    between atoms: _243  and  _244
REMARK   97  A    between atoms: _243  and  _246
REMARK   98  A    between atoms: _246  and  _247
REMARK   99  A    between atoms: _252  and  _253
REMARK  100  A    between atoms: _255  and  _257
REMARK  101  A    between atoms: _257  and  _258
REMARK  102  A    between atoms: _257  and  _260
REMARK  103  A    between atoms: _260  and  _261
REMARK  104  A    between atoms: _266  and  _267
REMARK  105  A    between atoms: _269  and  _271
REMARK  106  A    between atoms: _271  and  _272
REMARK  107  A    between atoms: _271  and  _274
REMARK  108  A    between atoms: _274  and  _275
REMARK  109  A    between atoms: _280  and  _282
REMARK  110  A    between atoms: _282  and  _283
REMARK  111  A    between atoms: _282  and  _285
REMARK  112  A    between atoms: _285  and  _286
REMARK  113  A    between atoms: _286  and  _287
REMARK  114  A    between atoms: _287  and  _288
REMARK  115  A    between atoms: _288  and  _289
REMARK  116  A    between atoms: _293  and  _295
REMARK  117  A    between atoms: _295  and  _296
REMARK  118  A    between atoms: _295  and  _298
REMARK  119  A    between atoms: _298  and  _299
REMARK  120  A    between atoms: _302  and  _304
REMARK  121  A    between atoms: _304  and  _305
REMARK  122  A    between atoms: _304  and  _307
REMARK  123  A    between atoms: _307  and  _308
REMARK  124  A    between atoms: _311  and  _313
REMARK  125  A    between atoms: _313  and  _314
REMARK  126  A    between atoms: _313  and  _316
REMARK  127  A    between atoms: _319  and  _321
REMARK  128  A    between atoms: _321  and  _322
REMARK  129  A    between atoms: _321  and  _324
REMARK  130  A    between atoms: _324  and  _325
REMARK  131  A    between atoms: _325  and  _326
REMARK  132  A    between atoms: _328  and  _330
REMARK  133  A    between atoms: _330  and  _331
REMARK                            x       y       z     vdW  Elec       q    Type
REMARK                         _______ _______ _______ _____ _____    ______ ____
ROOT
ATOM      1  C   MET A   1      -8.194  25.571  -3.249  0.00  0.00    +0.238 C 
ATOM      2  O   MET A   1      -8.747  26.571  -2.769  0.00  0.00    -0.274 OA
ATOM      3  N   ALA A   2      -7.033  25.079  -2.769  0.00  0.00    -0.298 N 
ATOM      4  H   ALA A   2      -6.667  24.173  -3.125  0.00  0.00    +0.150 HD
ENDROOT
BRANCH   3   5
ATOM      5  CA  ALA A   2      -6.299  25.806  -1.765  0.00  0.00    +0.137 C 
ATOM      6  CB  ALA A   2      -4.985  25.087  -1.451  0.00  0.00    +0.030 C 
BRANCH   5   7
ATOM      7  C   ALA A   2      -6.027  27.264  -2.174  0.00  0.00    +0.227 C 
ATOM      8  O   ALA A   2      -6.225  28.178  -1.355  0.00  0.00    -0.286 OA
ENDBRANCH   5   7
ENDBRANCH   3   5
BRANCH   1   9
ATOM      9  CA  MET A   1      -8.800  24.843  -4.427  0.00  0.00    +0.146 C 
BRANCH   9  10
ATOM     10  N   MET A   1      -7.822  24.615  -5.506  0.00  0.00    -0.238 NA
ATOM     11  H   MET A   1      -7.509  23.644  -5.709  0.00  0.00    +0.142 HD
ENDBRANCH   9  10
BRANCH   9  12
ATOM     12  CB  MET A   1      -9.404  23.506  -4.000  0.00  0.00    +0.038 C 
BRANCH  12  13
ATOM     13  CG  MET A   1     -10.167  22.850  -5.128  0.00  0.00    +0.060 C 
BRANCH  13  14
ATOM     14  SD  MET A   1     -10.648  21.128  -4.809  0.00  0.00    -0.139 S 
ATOM     15  CE  MET A   1     -12.194  21.405  -3.972  0.00  0.00    +0.069 C 
ENDBRANCH  13  14
ENDBRANCH  12  13
ENDBRANCH   9  12
ENDBRANCH   1   9
TORSDOF 7
REMARK  Name = ../refined-set-2016/4xya/4xya_pocket.pdb
REMARK  133 active torsions:
REMARK  status: ('A' for Active; 'I' for Inactive)
REMARK    1  A    between atoms: _1  and  _3
REMARK    2  A    between atoms: _3  and  _4
REMARK    3  A    between atoms: _7  and  _9
REMARK    4  A    between atoms: _9  and  _10
REMARK    5  A    between atoms: _9  and  _12
REMARK    6  A    between atoms: _12  and  _13
REMARK    7  A    between atoms: _24  and  _25
REMARK    8  A    between atoms: _30  and  _32
REMARK    9  A    between atoms: _32  and  _33
REMARK   10  A    between atoms: _32  and  _35
REMARK   11  A    between atoms: _35  and  _36
REMARK   12  A    between atoms: _42  and  _44
REMARK   13  A    between atoms: _44  and  _45
REMARK   14  A    between atoms: _44  and  _47
REMARK   15  A    between atoms: _47  and  _48
REMARK   16  A    between atoms: _48  and  _49
REMARK   17  A    between atoms: _54  and  _56
REMARK   18  A    between atoms: _56  and  _57
REMARK   19  A    between atoms: _56  and  _59
REMARK   20  A    between atoms: _59  and  _60
REMARK   21  A    between atoms: _60  and  _61
REMARK   22  A    between atoms: _67  and  _68
REMARK   23  A    between atoms: _73  and  _75
REMARK   24  A    between atoms: _75  and  _76
REMARK   25  A    between atoms: _75  and  _78
REMARK   26  A    between atoms: _81  and  _83
REMARK   27  A    between atoms: _83  and  _84
REMARK   28  A    between atoms: _83  and  _86
REMARK   29  A    between atoms: _86  and  _87
REMARK   30  A    between atoms: _90  and  _92
REMARK   31  A    between atoms: _92  and  _93
REMARK   32  A    between atoms: _96  and  _98
REMARK   33  A    between atoms: _98  and  _99
REMARK   34  A    between atoms: _98  and  _101
REMARK   35  A    between atoms: _101  and  _102
REMARK   36  A    between atoms: _102  and  _103
REMARK   37  A    between atoms: _103  and  _104
REMARK   38  A    between atoms: _104  and  _105
REMARK   39  A    between atoms: _109  and  _111
REMARK   40  A    between atoms: _111  and  _112
REMARK   41  A    between atoms: _111  and  _114
REMARK   42  A    between atoms: _114  and  _115
REMARK   43  A    between atoms: _118  and  _120
REMARK   44  A    between atoms: _120  and  _121
REMARK   45  A    between atoms: _120  and  _123
REMARK   46  A    between atoms: _123  and  _124
REMARK   47  A    between atoms: _129  and  _131
REMARK   48  A    between atoms: _131  and  _132
REMARK   49  A    between atoms: _131  and  _134
REMARK   50  A    between atoms: _134  and  _135
REMARK   51  A    between atoms: _138  and  _140
REMARK   52  A    between atoms: _140  and  _141
REMARK   53  A    between atoms: _140  and  _143
REMARK   54  A    between atoms: _143  and  _144
REMARK   55  A    between atoms: _149  and  _150
REMARK   56  A    between atoms: _152  and  _154
REMARK   57  A    between atoms: _154  and  _155
REMARK   58  A    between atoms: _154  and  _157
REMARK   59  A    between atoms: _157  and  _158
REMARK   60  A    between atoms: _163  and  _164
REMARK   61  A    between atoms: _166  and  _168
REMARK   62  A    between atoms: _168  and  _169
REMARK   63  A    between atoms: _168  and  _171
REMARK   64  A    between atoms: _171  and  _172
REMARK   65  A    between atoms: _175  and  _177
REMARK   66  A    between atoms: _177  and  _178
REMARK   67  A    between atoms: _177  and  _180
REMARK   68  A    between atoms: _180  and  _181
REMARK   69  A    between atoms: _181  and  _182
REMARK   70  A    between atoms: _184  and  _186
REMARK   71  A    between atoms: _186  and  _187
REMARK   72  A    between atoms: _186  and  _189
REMARK   73  A    between atoms: _189  and  _190
REMARK   74  A    between atoms: _193  and  _195
REMARK   75  A    between atoms: _195  and  _196
REMARK   76  A    between atoms: _195  and  _198
REMARK   77  A    between atoms: _198  and  _199
REMARK   78  A    between atoms: _199  and  _200
REMARK   79  A    between atoms: _202  and  _204
REMARK   80  A    between atoms: _204  and  _205
REMARK   81  A    between atoms: _204  and  _207
REMARK   82  A    between atoms: _207  and  _208
REMARK   83  A    between atoms: _208  and  _209
REMARK   84  A    between atoms: _211  and  _213
REMARK   85  A    between atoms: _213  and  _214
REMARK   86  A    between atoms: _213  and  _216
REMARK   87  A    between atoms: _216  and  _217
REMARK   88  A    between atoms: _223  and  _225
REMARK   89  A    between atoms: _225  and  _226
REMARK   90  A    between atoms: _225  and  _228
REMARK   91  A    between atoms: _228  and  _229
REMARK   92  A    between atoms: _234  and  _236
REMARK   93  A    between atoms: _236  and  _237
REMARK   94  A    between atoms: _236  and  _239
REMARK   95  A    between atoms: _241  and  _243
REMARK   96  A    between atoms: _243  and  _244
REMARK   97  A    between atoms: _243  and  _246
REMARK   98  A    between atoms: _246  and  _247
REMARK   99  A    between atoms: _252  and  _253
REMARK  100  A    between atoms: _255  and  _257
REMARK  101  A    between atoms: _257  and  _258
REMARK  102  A    between atoms: _257  and  _260
REMARK  103  A    between atoms: _260  and  _261
REMARK  104  A    between atoms: _266  and  _267
REMARK  105  A    between atoms: _269  and  _271
REMARK  106  A    between atoms: _271  and  _272
REMARK  107  A    between atoms: _271  and  _274
REMARK  108  A    between atoms: _274  and  _275
REMARK  109  A    between atoms: _280  and  _282
REMARK  110  A    between atoms: _282  and  _283
REMARK  111  A    between atoms: _282  and  _285
REMARK  112  A    between atoms: _285  and  _286
REMARK  113  A    between atoms: _286  and  _287
REMARK  114  A    between atoms: _287  and  _288
REMARK  115  A    between atoms: _288  and  _289
REMARK  116  A    between atoms: _293  and  _295
REMARK  117  A    between atoms: _295  and  _296
REMARK  118  A    between atoms: _295  and  _298
REMARK  119  A    between atoms: _298  and  _299
REMARK  120  A    between atoms: _302  and  _304
REMARK  121  A    between atoms: _304  and  _305
REMARK  122  A    between atoms: _304  and  _307
REMARK  123  A    between atoms: _307  and  _308
REMARK  124  A    between atoms: _311  and  _313
REMARK  125  A    between atoms: _313  and  _314
REMARK  126  A    between atoms: _313  and  _316
REMARK  127  A    between atoms: _319  and  _321
REMARK  128  A    between atoms: _321  and  _322
REMARK  129  A    between atoms: _321  and  _324
REMARK  130  A    between atoms: _324  and  _325
REMARK  131  A    between atoms: _325  and  _326
REMARK  132  A    between atoms: _328  and  _330
REMARK  133  A    between atoms: _330  and  _331
REMARK                            x       y       z     vdW  Elec       q    Type
REMARK                         _______ _______ _______ _____ _____    ______ ____
ROOT
ATOM      1  O   HOH     1      -7.224  10.507  -2.854  0.00  0.00    +0.000 OA
ENDROOT
TORSDOF 0
REMARK  Name = ../refined-set-2016/4xya/4xya_pocket.pdb
REMARK  133 active torsions:
REMARK  status: ('A' for Active; 'I' for Inactive)
REMARK    1  A    between atoms: _1  and  _3
REMARK    2  A    between atoms: _3  and  _4
REMARK    3  A    between atoms: _7  and  _9
REMARK    4  A    between atoms: _9  and  _10
REMARK    5  A    between atoms: _9  and  _12
REMARK    6  A    between atoms: _12  and  _13
REMARK    7  A    between atoms: _24  and  _25
REMARK    8  A    between atoms: _30  and  _32
REMARK    9  A    between atoms: _32  and  _33
REMARK   10  A    between atoms: _32  and  _35
REMARK   11  A    between atoms: _35  and  _36
REMARK   12  A    between atoms: _42  and  _44
REMARK   13  A    between atoms: _44  and  _45
REMARK   14  A    between atoms: _44  and  _47
REMARK   15  A    between atoms: _47  and  _48
REMARK   16  A    between atoms: _48  and  _49
REMARK   17  A    between atoms: _54  and  _56
REMARK   18  A    between atoms: _56  and  _57
REMARK   19  A    between atoms: _56  and  _59
REMARK   20  A    between atoms: _59  and  _60
REMARK   21  A    between atoms: _60  and  _61
REMARK   22  A    between atoms: _67  and  _68
REMARK   23  A    between atoms: _73  and  _75
REMARK   24  A    between atoms: _75  and  _76
REMARK   25  A    between atoms: _75  and  _78
REMARK   26  A    between atoms: _81  and  _83
REMARK   27  A    between atoms: _83  and  _84
REMARK   28  A    between atoms: _83  and  _86
REMARK   29  A    between atoms: _86  and  _87
REMARK   30  A    between atoms: _90  and  _92
REMARK   31  A    between atoms: _92  and  _93
REMARK   32  A    between atoms: _96  and  _98
REMARK   33  A    between atoms: _98  and  _99
REMARK   34  A    between atoms: _98  and  _101
REMARK   35  A    between atoms: _101  and  _102
REMARK   36  A    between atoms: _102  and  _103
REMARK   37  A    between atoms: _103  and  _104
REMARK   38  A    between atoms: _104  and  _105
REMARK   39  A    between atoms: _109  and  _111
REMARK   40  A    between atoms: _111  and  _112
REMARK   41  A    between atoms: _111  and  _114
REMARK   42  A    between atoms: _114  and  _115
REMARK   43  A    between atoms: _118  and  _120
REMARK   44  A    between atoms: _120  and  _121
REMARK   45  A    between atoms: _120  and  _123
REMARK   46  A    between atoms: _123  and  _124
REMARK   47  A    between atoms: _129  and  _131
REMARK   48  A    between atoms: _131  and  _132
REMARK   49  A    between atoms: _131  and  _134
REMARK   50  A    between atoms: _134  and  _135
REMARK   51  A    between atoms: _138  and  _140
REMARK   52  A    between atoms: _140  and  _141
REMARK   53  A    between atoms: _140  and  _143
REMARK   54  A    between atoms: _143  and  _144
REMARK   55  A    between atoms: _149  and  _150
REMARK   56  A    between atoms: _152  and  _154
REMARK   57  A    between atoms: _154  and  _155
REMARK   58  A    between atoms: _154  and  _157
REMARK   59  A    between atoms: _157  and  _158
REMARK   60  A    between atoms: _163  and  _164
REMARK   61  A    between atoms: _166  and  _168
REMARK   62  A    between atoms: _168  and  _169
REMARK   63  A    between atoms: _168  and  _171
REMARK   64  A    between atoms: _171  and  _172
REMARK   65  A    between atoms: _175  and  _177
REMARK   66  A    between atoms: _177  and  _178
REMARK   67  A    between atoms: _177  and  _180
REMARK   68  A    between atoms: _180  and  _181
REMARK   69  A    between atoms: _181  and  _182
REMARK   70  A    between atoms: _184  and  _186
REMARK   71  A    between atoms: _186  and  _187
REMARK   72  A    between atoms: _186  and  _189
REMARK   73  A    between atoms: _189  and  _190
REMARK   74  A    between atoms: _193  and  _195
REMARK   75  A    between atoms: _195  and  _196
REMARK   76  A    between atoms: _195  and  _198
REMARK   77  A    between atoms: _198  and  _199
REMARK   78  A    between atoms: _199  and  _200
REMARK   79  A    between atoms: _202  and  _204
REMARK   80  A    between atoms: _204  and  _205
REMARK   81  A    between atoms: _204  and  _207
REMARK   82  A    between atoms: _207  and  _208
REMARK   83  A    between atoms: _208  and  _209
REMARK   84  A    between atoms: _211  and  _213
REMARK   85  A    between atoms: _213  and  _214
REMARK   86  A    between atoms: _213  and  _216
REMARK   87  A    between atoms: _216  and  _217
REMARK   88  A    between atoms: _223  and  _225
REMARK   89  A    between atoms: _225  and  _226
REMARK   90  A    between atoms: _225  and  _228
REMARK   91  A    between atoms: _228  and  _229
REMARK   92  A    between atoms: _234  and  _236
REMARK   93  A    between atoms: _236  and  _237
REMARK   94  A    between atoms: _236  and  _239
REMARK   95  A    between atoms: _241  and  _243
REMARK   96  A    between atoms: _243  and  _244
REMARK   97  A    between atoms: _243  and  _246
REMARK   98  A    between atoms: _246  and  _247
REMARK   99  A    between atoms: _252  and  _253
REMARK  100  A    between atoms: _255  and  _257
REMARK  101  A    between atoms: _257  and  _258
REMARK  102  A    between atoms: _257  and  _260
REMARK  103  A    between atoms: _260  and  _261
REMARK  104  A    between atoms: _266  and  _267
REMARK  105  A    between atoms: _269  and  _271
REMARK  106  A    between atoms: _271  and  _272
REMARK  107  A    between atoms: _271  and  _274
REMARK  108  A    between atoms: _274  and  _275
REMARK  109  A    between atoms: _280  and  _282
REMARK  110  A    between atoms: _282  and  _283
REMARK  111  A    between atoms: _282  and  _285
REMARK  112  A    between atoms: _285  and  _286
REMARK  113  A    between atoms: _286  and  _287
REMARK  114  A    between atoms: _287  and  _288
REMARK  115  A    between atoms: _288  and  _289
REMARK  116  A    between atoms: _293  and  _295
REMARK  117  A    between atoms: _295  and  _296
REMARK  118  A    between atoms: _295  and  _298
REMARK  119  A    between atoms: _298  and  _299
REMARK  120  A    between atoms: _302  and  _304
REMARK  121  A    between atoms: _304  and  _305
REMARK  122  A    between atoms: _304  and  _307
REMARK  123  A    between atoms: _307  and  _308
REMARK  124  A    between atoms: _311  and  _313
REMARK  125  A    between atoms: _313  and  _314
REMARK  126  A    between atoms: _313  and  _316
REMARK  127  A    between atoms: _319  and  _321
REMARK  128  A    between atoms: _321  and  _322
REMARK  129  A    between atoms: _321  and  _324
REMARK  130  A    between atoms: _324  and  _325
REMARK  131  A    between atoms: _325  and  _326
REMARK  132  A    between atoms: _328  and  _330
REMARK  133  A    between atoms: _330  and  _331
REMARK                            x       y       z     vdW  Elec       q    Type
REMARK                         _______ _______ _______ _____ _____    ______ ____
ROOT
ATOM      1  O   HOH     1       2.799  11.838  -3.391  0.00  0.00    +0.000 OA
ENDROOT
TORSDOF 0
REMARK  Name = ../refined-set-2016/4xya/4xya_pocket.pdb
REMARK  133 active torsions:
REMARK  status: ('A' for Active; 'I' for Inactive)
REMARK    1  A    between atoms: _1  and  _3
REMARK    2  A    between atoms: _3  and  _4
REMARK    3  A    between atoms: _7  and  _9
REMARK    4  A    between atoms: _9  and  _10
REMARK    5  A    between atoms: _9  and  _12
REMARK    6  A    between atoms: _12  and  _13
REMARK    7  A    between atoms: _24  and  _25
REMARK    8  A    between atoms: _30  and  _32
REMARK    9  A    between atoms: _32  and  _33
REMARK   10  A    between atoms: _32  and  _35
REMARK   11  A    between atoms: _35  and  _36
REMARK   12  A    between atoms: _42  and  _44
REMARK   13  A    between atoms: _44  and  _45
REMARK   14  A    between atoms: _44  and  _47
REMARK   15  A    between atoms: _47  and  _48
REMARK   16  A    between atoms: _48  and  _49
REMARK   17  A    between atoms: _54  and  _56
REMARK   18  A    between atoms: _56  and  _57
REMARK   19  A    between atoms: _56  and  _59
REMARK   20  A    between atoms: _59  and  _60
REMARK   21  A    between atoms: _60  and  _61
REMARK   22  A    between atoms: _67  and  _68
REMARK   23  A    between atoms: _73  and  _75
REMARK   24  A    between atoms: _75  and  _76
REMARK   25  A    between atoms: _75  and  _78
REMARK   26  A    between atoms: _81  and  _83
REMARK   27  A    between atoms: _83  and  _84
REMARK   28  A    between atoms: _83  and  _86
REMARK   29  A    between atoms: _86  and  _87
REMARK   30  A    between atoms: _90  and  _92
REMARK   31  A    between atoms: _92  and  _93
REMARK   32  A    between atoms: _96  and  _98
REMARK   33  A    between atoms: _98  and  _99
REMARK   34  A    between atoms: _98  and  _101
REMARK   35  A    between atoms: _101  and  _102
REMARK   36  A    between atoms: _102  and  _103
REMARK   37  A    between atoms: _103  and  _104
REMARK   38  A    between atoms: _104  and  _105
REMARK   39  A    between atoms: _109  and  _111
REMARK   40  A    between atoms: _111  and  _112
REMARK   41  A    between atoms: _111  and  _114
REMARK   42  A    between atoms: _114  and  _115
REMARK   43  A    between atoms: _118  and  _120
REMARK   44  A    between atoms: _120  and  _121
REMARK   45  A    between atoms: _120  and  _123
REMARK   46  A    between atoms: _123  and  _124
REMARK   47  A    between atoms: _129  and  _131
REMARK   48  A    between atoms: _131  and  _132
REMARK   49  A    between atoms: _131  and  _134
REMARK   50  A    between atoms: _134  and  _135
REMARK   51  A    between atoms: _138  and  _140
REMARK   52  A    between atoms: _140  and  _141
REMARK   53  A    between atoms: _140  and  _143
REMARK   54  A    between atoms: _143  and  _144
REMARK   55  A    between atoms: _149  and  _150
REMARK   56  A    between atoms: _152  and  _154
REMARK   57  A    between atoms: _154  and  _155
REMARK   58  A    between atoms: _154  and  _157
REMARK   59  A    between atoms: _157  and  _158
REMARK   60  A    between atoms: _163  and  _164
REMARK   61  A    between atoms: _166  and  _168
REMARK   62  A    between atoms: _168  and  _169
REMARK   63  A    between atoms: _168  and  _171
REMARK   64  A    between atoms: _171  and  _172
REMARK   65  A    between atoms: _175  and  _177
REMARK   66  A    between atoms: _177  and  _178
REMARK   67  A    between atoms: _177  and  _180
REMARK   68  A    between atoms: _180  and  _181
REMARK   69  A    between atoms: _181  and  _182
REMARK   70  A    between atoms: _184  and  _186
REMARK   71  A    between atoms: _186  and  _187
REMARK   72  A    between atoms: _186  and  _189
REMARK   73  A    between atoms: _189  and  _190
REMARK   74  A    between atoms: _193  and  _195
REMARK   75  A    between atoms: _195  and  _196
REMARK   76  A    between atoms: _195  and  _198
REMARK   77  A    between atoms: _198  and  _199
REMARK   78  A    between atoms: _199  and  _200
REMARK   79  A    between atoms: _202  and  _204
REMARK   80  A    between atoms: _204  and  _205
REMARK   81  A    between atoms: _204  and  _207
REMARK   82  A    between atoms: _207  and  _208
REMARK   83  A    between atoms: _208  and  _209
REMARK   84  A    between atoms: _211  and  _213
REMARK   85  A    between atoms: _213  and  _214
REMARK   86  A    between atoms: _213  and  _216
REMARK   87  A    between atoms: _216  and  _217
REMARK   88  A    between atoms: _223  and  _225
REMARK   89  A    between atoms: _225  and  _226
REMARK   90  A    between atoms: _225  and  _228
REMARK   91  A    between atoms: _228  and  _229
REMARK   92  A    between atoms: _234  and  _236
REMARK   93  A    between atoms: _236  and  _237
REMARK   94  A    between atoms: _236  and  _239
REMARK   95  A    between atoms: _241  and  _243
REMARK   96  A    between atoms: _243  and  _244
REMARK   97  A    between atoms: _243  and  _246
REMARK   98  A    between atoms: _246  and  _247
REMARK   99  A    between atoms: _252  and  _253
REMARK  100  A    between atoms: _255  and  _257
REMARK  101  A    between atoms: _257  and  _258
REMARK  102  A    between atoms: _257  and  _260
REMARK  103  A    between atoms: _260  and  _261
REMARK  104  A    between atoms: _266  and  _267
REMARK  105  A    between atoms: _269  and  _271
REMARK  106  A    between atoms: _271  and  _272
REMARK  107  A    between atoms: _271  and  _274
REMARK  108  A    between atoms: _274  and  _275
REMARK  109  A    between atoms: _280  and  _282
REMARK  110  A    between atoms: _282  and  _283
REMARK  111  A    between atoms: _282  and  _285
REMARK  112  A    between atoms: _285  and  _286
REMARK  113  A    between atoms: _286  and  _287
REMARK  114  A    between atoms: _287  and  _288
REMARK  115  A    between atoms: _288  and  _289
REMARK  116  A    between atoms: _293  and  _295
REMARK  117  A    between atoms: _295  and  _296
REMARK  118  A    between atoms: _295  and  _298
REMARK  119  A    between atoms: _298  and  _299
REMARK  120  A    between atoms: _302  and  _304
REMARK  121  A    between atoms: _304  and  _305
REMARK  122  A    between atoms: _304  and  _307
REMARK  123  A    between atoms: _307  and  _308
REMARK  124  A    between atoms: _311  and  _313
REMARK  125  A    between atoms: _313  and  _314
REMARK  126  A    between atoms: _313  and  _316
REMARK  127  A    between atoms: _319  and  _321
REMARK  128  A    between atoms: _321  and  _322
REMARK  129  A    between atoms: _321  and  _324
REMARK  130  A    between atoms: _324  and  _325
REMARK  131  A    between atoms: _325  and  _326
REMARK  132  A    between atoms: _328  and  _330
REMARK  133  A    between atoms: _330  and  _331
REMARK                            x       y       z     vdW  Elec       q    Type
REMARK                         _______ _______ _______ _____ _____    ______ ____
ROOT
ATOM      1  O   HOH     1     -10.096  16.195  -8.525  0.00  0.00    +0.000 OA
ENDROOT
TORSDOF 0
REMARK  Name = ../refined-set-2016/4xya/4xya_pocket.pdb
REMARK  133 active torsions:
REMARK  status: ('A' for Active; 'I' for Inactive)
REMARK    1  A    between atoms: _1  and  _3
REMARK    2  A    between atoms: _3  and  _4
REMARK    3  A    between atoms: _7  and  _9
REMARK    4  A    between atoms: _9  and  _10
REMARK    5  A    between atoms: _9  and  _12
REMARK    6  A    between atoms: _12  and  _13
REMARK    7  A    between atoms: _24  and  _25
REMARK    8  A    between atoms: _30  and  _32
REMARK    9  A    between atoms: _32  and  _33
REMARK   10  A    between atoms: _32  and  _35
REMARK   11  A    between atoms: _35  and  _36
REMARK   12  A    between atoms: _42  and  _44
REMARK   13  A    between atoms: _44  and  _45
REMARK   14  A    between atoms: _44  and  _47
REMARK   15  A    between atoms: _47  and  _48
REMARK   16  A    between atoms: _48  and  _49
REMARK   17  A    between atoms: _54  and  _56
REMARK   18  A    between atoms: _56  and  _57
REMARK   19  A    between atoms: _56  and  _59
REMARK   20  A    between atoms: _59  and  _60
REMARK   21  A    between atoms: _60  and  _61
REMARK   22  A    between atoms: _67  and  _68
REMARK   23  A    between atoms: _73  and  _75
REMARK   24  A    between atoms: _75  and  _76
REMARK   25  A    between atoms: _75  and  _78
REMARK   26  A    between atoms: _81  and  _83
REMARK   27  A    between atoms: _83  and  _84
REMARK   28  A    between atoms: _83  and  _86
REMARK   29  A    between atoms: _86  and  _87
REMARK   30  A    between atoms: _90  and  _92
REMARK   31  A    between atoms: _92  and  _93
REMARK   32  A    between atoms: _96  and  _98
REMARK   33  A    between atoms: _98  and  _99
REMARK   34  A    between atoms: _98  and  _101
REMARK   35  A    between atoms: _101  and  _102
REMARK   36  A    between atoms: _102  and  _103
REMARK   37  A    between atoms: _103  and  _104
REMARK   38  A    between atoms: _104  and  _105
REMARK   39  A    between atoms: _109  and  _111
REMARK   40  A    between atoms: _111  and  _112
REMARK   41  A    between atoms: _111  and  _114
REMARK   42  A    between atoms: _114  and  _115
REMARK   43  A    between atoms: _118  and  _120
REMARK   44  A    between atoms: _120  and  _121
REMARK   45  A    between atoms: _120  and  _123
REMARK   46  A    between atoms: _123  and  _124
REMARK   47  A    between atoms: _129  and  _131
REMARK   48  A    between atoms: _131  and  _132
REMARK   49  A    between atoms: _131  and  _134
REMARK   50  A    between atoms: _134  and  _135
REMARK   51  A    between atoms: _138  and  _140
REMARK   52  A    between atoms: _140  and  _141
REMARK   53  A    between atoms: _140  and  _143
REMARK   54  A    between atoms: _143  and  _144
REMARK   55  A    between atoms: _149  and  _150
REMARK   56  A    between atoms: _152  and  _154
REMARK   57  A    between atoms: _154  and  _155
REMARK   58  A    between atoms: _154  and  _157
REMARK   59  A    between atoms: _157  and  _158
REMARK   60  A    between atoms: _163  and  _164
REMARK   61  A    between atoms: _166  and  _168
REMARK   62  A    between atoms: _168  and  _169
REMARK   63  A    between atoms: _168  and  _171
REMARK   64  A    between atoms: _171  and  _172
REMARK   65  A    between atoms: _175  and  _177
REMARK   66  A    between atoms: _177  and  _178
REMARK   67  A    between atoms: _177  and  _180
REMARK   68  A    between atoms: _180  and  _181
REMARK   69  A    between atoms: _181  and  _182
REMARK   70  A    between atoms: _184  and  _186
REMARK   71  A    between atoms: _186  and  _187
REMARK   72  A    between atoms: _186  and  _189
REMARK   73  A    between atoms: _189  and  _190
REMARK   74  A    between atoms: _193  and  _195
REMARK   75  A    between atoms: _195  and  _196
REMARK   76  A    between atoms: _195  and  _198
REMARK   77  A    between atoms: _198  and  _199
REMARK   78  A    between atoms: _199  and  _200
REMARK   79  A    between atoms: _202  and  _204
REMARK   80  A    between atoms: _204  and  _205
REMARK   81  A    between atoms: _204  and  _207
REMARK   82  A    between atoms: _207  and  _208
REMARK   83  A    between atoms: _208  and  _209
REMARK   84  A    between atoms: _211  and  _213
REMARK   85  A    between atoms: _213  and  _214
REMARK   86  A    between atoms: _213  and  _216
REMARK   87  A    between atoms: _216  and  _217
REMARK   88  A    between atoms: _223  and  _225
REMARK   89  A    between atoms: _225  and  _226
REMARK   90  A    between atoms: _225  and  _228
REMARK   91  A    between atoms: _228  and  _229
REMARK   92  A    between atoms: _234  and  _236
REMARK   93  A    between atoms: _236  and  _237
REMARK   94  A    between atoms: _236  and  _239
REMARK   95  A    between atoms: _241  and  _243
REMARK   96  A    between atoms: _243  and  _244
REMARK   97  A    between atoms: _243  and  _246
REMARK   98  A    between atoms: _246  and  _247
REMARK   99  A    between atoms: _252  and  _253
REMARK  100  A    between atoms: _255  and  _257
REMARK  101  A    between atoms: _257  and  _258
REMARK  102  A    between atoms: _257  and  _260
REMARK  103  A    between atoms: _260  and  _261
REMARK  104  A    between atoms: _266  and  _267
REMARK  105  A    between atoms: _269  and  _271
REMARK  106  A    between atoms: _271  and  _272
REMARK  107  A    between atoms: _271  and  _274
REMARK  108  A    between atoms: _274  and  _275
REMARK  109  A    between atoms: _280  and  _282
REMARK  110  A    between atoms: _282  and  _283
REMARK  111  A    between atoms: _282  and  _285
REMARK  112  A    between atoms: _285  and  _286
REMARK  113  A    between atoms: _286  and  _287
REMARK  114  A    between atoms: _287  and  _288
REMARK  115  A    between atoms: _288  and  _289
REMARK  116  A    between atoms: _293  and  _295
REMARK  117  A    between atoms: _295  and  _296
REMARK  118  A    between atoms: _295  and  _298
REMARK  119  A    between atoms: _298  and  _299
REMARK  120  A    between atoms: _302  and  _304
REMARK  121  A    between atoms: _304  and  _305
REMARK  122  A    between atoms: _304  and  _307
REMARK  123  A    between atoms: _307  and  _308
REMARK  124  A    between atoms: _311  and  _313
REMARK  125  A    between atoms: _313  and  _314
REMARK  126  A    between atoms: _313  and  _316
REMARK  127  A    between atoms: _319  and  _321
REMARK  128  A    between atoms: _321  and  _322
REMARK  129  A    between atoms: _321  and  _324
REMARK  130  A    between atoms: _324  and  _325
REMARK  131  A    between atoms: _325  and  _326
REMARK  132  A    between atoms: _328  and  _330
REMARK  133  A    between atoms: _330  and  _331
REMARK                            x       y       z     vdW  Elec       q    Type
REMARK                         _______ _______ _______ _____ _____    ______ ____
ROOT
ATOM      1  O   HOH     1     -15.839  12.085   5.444  0.00  0.00    +0.000 OA
ENDROOT
TORSDOF 0
REMARK  Name = ../refined-set-2016/4xya/4xya_pocket.pdb
REMARK  133 active torsions:
REMARK  status: ('A' for Active; 'I' for Inactive)
REMARK    1  A    between atoms: _1  and  _3
REMARK    2  A    between atoms: _3  and  _4
REMARK    3  A    between atoms: _7  and  _9
REMARK    4  A    between atoms: _9  and  _10
REMARK    5  A    between atoms: _9  and  _12
REMARK    6  A    between atoms: _12  and  _13
REMARK    7  A    between atoms: _24  and  _25
REMARK    8  A    between atoms: _30  and  _32
REMARK    9  A    between atoms: _32  and  _33
REMARK   10  A    between atoms: _32  and  _35
REMARK   11  A    between atoms: _35  and  _36
REMARK   12  A    between atoms: _42  and  _44
REMARK   13  A    between atoms: _44  and  _45
REMARK   14  A    between atoms: _44  and  _47
REMARK   15  A    between atoms: _47  and  _48
REMARK   16  A    between atoms: _48  and  _49
REMARK   17  A    between atoms: _54  and  _56
REMARK   18  A    between atoms: _56  and  _57
REMARK   19  A    between atoms: _56  and  _59
REMARK   20  A    between atoms: _59  and  _60
REMARK   21  A    between atoms: _60  and  _61
REMARK   22  A    between atoms: _67  and  _68
REMARK   23  A    between atoms: _73  and  _75
REMARK   24  A    between atoms: _75  and  _76
REMARK   25  A    between atoms: _75  and  _78
REMARK   26  A    between atoms: _81  and  _83
REMARK   27  A    between atoms: _83  and  _84
REMARK   28  A    between atoms: _83  and  _86
REMARK   29  A    between atoms: _86  and  _87
REMARK   30  A    between atoms: _90  and  _92
REMARK   31  A    between atoms: _92  and  _93
REMARK   32  A    between atoms: _96  and  _98
REMARK   33  A    between atoms: _98  and  _99
REMARK   34  A    between atoms: _98  and  _101
REMARK   35  A    between atoms: _101  and  _102
REMARK   36  A    between atoms: _102  and  _103
REMARK   37  A    between atoms: _103  and  _104
REMARK   38  A    between atoms: _104  and  _105
REMARK   39  A    between atoms: _109  and  _111
REMARK   40  A    between atoms: _111  and  _112
REMARK   41  A    between atoms: _111  and  _114
REMARK   42  A    between atoms: _114  and  _115
REMARK   43  A    between atoms: _118  and  _120
REMARK   44  A    between atoms: _120  and  _121
REMARK   45  A    between atoms: _120  and  _123
REMARK   46  A    between atoms: _123  and  _124
REMARK   47  A    between atoms: _129  and  _131
REMARK   48  A    between atoms: _131  and  _132
REMARK   49  A    between atoms: _131  and  _134
REMARK   50  A    between atoms: _134  and  _135
REMARK   51  A    between atoms: _138  and  _140
REMARK   52  A    between atoms: _140  and  _141
REMARK   53  A    between atoms: _140  and  _143
REMARK   54  A    between atoms: _143  and  _144
REMARK   55  A    between atoms: _149  and  _150
REMARK   56  A    between atoms: _152  and  _154
REMARK   57  A    between atoms: _154  and  _155
REMARK   58  A    between atoms: _154  and  _157
REMARK   59  A    between atoms: _157  and  _158
REMARK   60  A    between atoms: _163  and  _164
REMARK   61  A    between atoms: _166  and  _168
REMARK   62  A    between atoms: _168  and  _169
REMARK   63  A    between atoms: _168  and  _171
REMARK   64  A    between atoms: _171  and  _172
REMARK   65  A    between atoms: _175  and  _177
REMARK   66  A    between atoms: _177  and  _178
REMARK   67  A    between atoms: _177  and  _180
REMARK   68  A    between atoms: _180  and  _181
REMARK   69  A    between atoms: _181  and  _182
REMARK   70  A    between atoms: _184  and  _186
REMARK   71  A    between atoms: _186  and  _187
REMARK   72  A    between atoms: _186  and  _189
REMARK   73  A    between atoms: _189  and  _190
REMARK   74  A    between atoms: _193  and  _195
REMARK   75  A    between atoms: _195  and  _196
REMARK   76  A    between atoms: _195  and  _198
REMARK   77  A    between atoms: _198  and  _199
REMARK   78  A    between atoms: _199  and  _200
REMARK   79  A    between atoms: _202  and  _204
REMARK   80  A    between atoms: _204  and  _205
REMARK   81  A    between atoms: _204  and  _207
REMARK   82  A    between atoms: _207  and  _208
REMARK   83  A    between atoms: _208  and  _209
REMARK   84  A    between atoms: _211  and  _213
REMARK   85  A    between atoms: _213  and  _214
REMARK   86  A    between atoms: _213  and  _216
REMARK   87  A    between atoms: _216  and  _217
REMARK   88  A    between atoms: _223  and  _225
REMARK   89  A    between atoms: _225  and  _226
REMARK   90  A    between atoms: _225  and  _228
REMARK   91  A    between atoms: _228  and  _229
REMARK   92  A    between atoms: _234  and  _236
REMARK   93  A    between atoms: _236  and  _237
REMARK   94  A    between atoms: _236  and  _239
REMARK   95  A    between atoms: _241  and  _243
REMARK   96  A    between atoms: _243  and  _244
REMARK   97  A    between atoms: _243  and  _246
REMARK   98  A    between atoms: _246  and  _247
REMARK   99  A    between atoms: _252  and  _253
REMARK  100  A    between atoms: _255  and  _257
REMARK  101  A    between atoms: _257  and  _258
REMARK  102  A    between atoms: _257  and  _260
REMARK  103  A    between atoms: _260  and  _261
REMARK  104  A    between atoms: _266  and  _267
REMARK  105  A    between atoms: _269  and  _271
REMARK  106  A    between atoms: _271  and  _272
REMARK  107  A    between atoms: _271  and  _274
REMARK  108  A    between atoms: _274  and  _275
REMARK  109  A    between atoms: _280  and  _282
REMARK  110  A    between atoms: _282  and  _283
REMARK  111  A    between atoms: _282  and  _285
REMARK  112  A    between atoms: _285  and  _286
REMARK  113  A    between atoms: _286  and  _287
REMARK  114  A    between atoms: _287  and  _288
REMARK  115  A    between atoms: _288  and  _289
REMARK  116  A    between atoms: _293  and  _295
REMARK  117  A    between atoms: _295  and  _296
REMARK  118  A    between atoms: _295  and  _298
REMARK  119  A    between atoms: _298  and  _299
REMARK  120  A    between atoms: _302  and  _304
REMARK  121  A    between atoms: _304  and  _305
REMARK  122  A    between atoms: _304  and  _307
REMARK  123  A    between atoms: _307  and  _308
REMARK  124  A    between atoms: _311  and  _313
REMARK  125  A    between atoms: _313  and  _314
REMARK  126  A    between atoms: _313  and  _316
REMARK  127  A    between atoms: _319  and  _321
REMARK  128  A    between atoms: _321  and  _322
REMARK  129  A    between atoms: _321  and  _324
REMARK  130  A    between atoms: _324  and  _325
REMARK  131  A    between atoms: _325  and  _326
REMARK  132  A    between atoms: _328  and  _330
REMARK  133  A    between atoms: _330  and  _331
REMARK                            x       y       z     vdW  Elec       q    Type
REMARK                         _______ _______ _______ _____ _____    ______ ____
ROOT
ATOM      1  O   HOH     1      -8.373   8.647  -4.137  0.00  0.00    +0.000 OA
ENDROOT
TORSDOF 0
REMARK  Name = ../refined-set-2016/4xya/4xya_pocket.pdb
REMARK  133 active torsions:
REMARK  status: ('A' for Active; 'I' for Inactive)
REMARK    1  A    between atoms: _1  and  _3
REMARK    2  A    between atoms: _3  and  _4
REMARK    3  A    between atoms: _7  and  _9
REMARK    4  A    between atoms: _9  and  _10
REMARK    5  A    between atoms: _9  and  _12
REMARK    6  A    between atoms: _12  and  _13
REMARK    7  A    between atoms: _24  and  _25
REMARK    8  A    between atoms: _30  and  _32
REMARK    9  A    between atoms: _32  and  _33
REMARK   10  A    between atoms: _32  and  _35
REMARK   11  A    between atoms: _35  and  _36
REMARK   12  A    between atoms: _42  and  _44
REMARK   13  A    between atoms: _44  and  _45
REMARK   14  A    between atoms: _44  and  _47
REMARK   15  A    between atoms: _47  and  _48
REMARK   16  A    between atoms: _48  and  _49
REMARK   17  A    between atoms: _54  and  _56
REMARK   18  A    between atoms: _56  and  _57
REMARK   19  A    between atoms: _56  and  _59
REMARK   20  A    between atoms: _59  and  _60
REMARK   21  A    between atoms: _60  and  _61
REMARK   22  A    between atoms: _67  and  _68
REMARK   23  A    between atoms: _73  and  _75
REMARK   24  A    between atoms: _75  and  _76
REMARK   25  A    between atoms: _75  and  _78
REMARK   26  A    between atoms: _81  and  _83
REMARK   27  A    between atoms: _83  and  _84
REMARK   28  A    between atoms: _83  and  _86
REMARK   29  A    between atoms: _86  and  _87
REMARK   30  A    between atoms: _90  and  _92
REMARK   31  A    between atoms: _92  and  _93
REMARK   32  A    between atoms: _96  and  _98
REMARK   33  A    between atoms: _98  and  _99
REMARK   34  A    between atoms: _98  and  _101
REMARK   35  A    between atoms: _101  and  _102
REMARK   36  A    between atoms: _102  and  _103
REMARK   37  A    between atoms: _103  and  _104
REMARK   38  A    between atoms: _104  and  _105
REMARK   39  A    between atoms: _109  and  _111
REMARK   40  A    between atoms: _111  and  _112
REMARK   41  A    between atoms: _111  and  _114
REMARK   42  A    between atoms: _114  and  _115
REMARK   43  A    between atoms: _118  and  _120
REMARK   44  A    between atoms: _120  and  _121
REMARK   45  A    between atoms: _120  and  _123
REMARK   46  A    between atoms: _123  and  _124
REMARK   47  A    between atoms: _129  and  _131
REMARK   48  A    between atoms: _131  and  _132
REMARK   49  A    between atoms: _131  and  _134
REMARK   50  A    between atoms: _134  and  _135
REMARK   51  A    between atoms: _138  and  _140
REMARK   52  A    between atoms: _140  and  _141
REMARK   53  A    between atoms: _140  and  _143
REMARK   54  A    between atoms: _143  and  _144
REMARK   55  A    between atoms: _149  and  _150
REMARK   56  A    between atoms: _152  and  _154
REMARK   57  A    between atoms: _154  and  _155
REMARK   58  A    between atoms: _154  and  _157
REMARK   59  A    between atoms: _157  and  _158
REMARK   60  A    between atoms: _163  and  _164
REMARK   61  A    between atoms: _166  and  _168
REMARK   62  A    between atoms: _168  and  _169
REMARK   63  A    between atoms: _168  and  _171
REMARK   64  A    between atoms: _171  and  _172
REMARK   65  A    between atoms: _175  and  _177
REMARK   66  A    between atoms: _177  and  _178
REMARK   67  A    between atoms: _177  and  _180
REMARK   68  A    between atoms: _180  and  _181
REMARK   69  A    between atoms: _181  and  _182
REMARK   70  A    between atoms: _184  and  _186
REMARK   71  A    between atoms: _186  and  _187
REMARK   72  A    between atoms: _186  and  _189
REMARK   73  A    between atoms: _189  and  _190
REMARK   74  A    between atoms: _193  and  _195
REMARK   75  A    between atoms: _195  and  _196
REMARK   76  A    between atoms: _195  and  _198
REMARK   77  A    between atoms: _198  and  _199
REMARK   78  A    between atoms: _199  and  _200
REMARK   79  A    between atoms: _202  and  _204
REMARK   80  A    between atoms: _204  and  _205
REMARK   81  A    between atoms: _204  and  _207
REMARK   82  A    between atoms: _207  and  _208
REMARK   83  A    between atoms: _208  and  _209
REMARK   84  A    between atoms: _211  and  _213
REMARK   85  A    between atoms: _213  and  _214
REMARK   86  A    between atoms: _213  and  _216
REMARK   87  A    between atoms: _216  and  _217
REMARK   88  A    between atoms: _223  and  _225
REMARK   89  A    between atoms: _225  and  _226
REMARK   90  A    between atoms: _225  and  _228
REMARK   91  A    between atoms: _228  and  _229
REMARK   92  A    between atoms: _234  and  _236
REMARK   93  A    between atoms: _236  and  _237
REMARK   94  A    between atoms: _236  and  _239
REMARK   95  A    between atoms: _241  and  _243
REMARK   96  A    between atoms: _243  and  _244
REMARK   97  A    between atoms: _243  and  _246
REMARK   98  A    between atoms: _246  and  _247
REMARK   99  A    between atoms: _252  and  _253
REMARK  100  A    between atoms: _255  and  _257
REMARK  101  A    between atoms: _257  and  _258
REMARK  102  A    between atoms: _257  and  _260
REMARK  103  A    between atoms: _260  and  _261
REMARK  104  A    between atoms: _266  and  _267
REMARK  105  A    between atoms: _269  and  _271
REMARK  106  A    between atoms: _271  and  _272
REMARK  107  A    between atoms: _271  and  _274
REMARK  108  A    between atoms: _274  and  _275
REMARK  109  A    between atoms: _280  and  _282
REMARK  110  A    between atoms: _282  and  _283
REMARK  111  A    between atoms: _282  and  _285
REMARK  112  A    between atoms: _285  and  _286
REMARK  113  A    between atoms: _286  and  _287
REMARK  114  A    between atoms: _287  and  _288
REMARK  115  A    between atoms: _288  and  _289
REMARK  116  A    between atoms: _293  and  _295
REMARK  117  A    between atoms: _295  and  _296
REMARK  118  A    between atoms: _295  and  _298
REMARK  119  A    between atoms: _298  and  _299
REMARK  120  A    between atoms: _302  and  _304
REMARK  121  A    between atoms: _304  and  _305
REMARK  122  A    between atoms: _304  and  _307
REMARK  123  A    between atoms: _307  and  _308
REMARK  124  A    between atoms: _311  and  _313
REMARK  125  A    between atoms: _313  and  _314
REMARK  126  A    between atoms: _313  and  _316
REMARK  127  A    between atoms: _319  and  _321
REMARK  128  A    between atoms: _321  and  _322
REMARK  129  A    between atoms: _321  and  _324
REMARK  130  A    between atoms: _324  and  _325
REMARK  131  A    between atoms: _325  and  _326
REMARK  132  A    between atoms: _328  and  _330
REMARK  133  A    between atoms: _330  and  _331
REMARK                            x       y       z     vdW  Elec       q    Type
REMARK                         _______ _______ _______ _____ _____    ______ ____
ROOT
ATOM      1  O   HOH     1     -12.069  11.096   4.196  0.00  0.00    +0.000 OA
ENDROOT
TORSDOF 0
REMARK  Name = ../refined-set-2016/4xya/4xya_pocket.pdb
REMARK  133 active torsions:
REMARK  status: ('A' for Active; 'I' for Inactive)
REMARK    1  A    between atoms: _1  and  _3
REMARK    2  A    between atoms: _3  and  _4
REMARK    3  A    between atoms: _7  and  _9
REMARK    4  A    between atoms: _9  and  _10
REMARK    5  A    between atoms: _9  and  _12
REMARK    6  A    between atoms: _12  and  _13
REMARK    7  A    between atoms: _24  and  _25
REMARK    8  A    between atoms: _30  and  _32
REMARK    9  A    between atoms: _32  and  _33
REMARK   10  A    between atoms: _32  and  _35
REMARK   11  A    between atoms: _35  and  _36
REMARK   12  A    between atoms: _42  and  _44
REMARK   13  A    between atoms: _44  and  _45
REMARK   14  A    between atoms: _44  and  _47
REMARK   15  A    between atoms: _47  and  _48
REMARK   16  A    between atoms: _48  and  _49
REMARK   17  A    between atoms: _54  and  _56
REMARK   18  A    between atoms: _56  and  _57
REMARK   19  A    between atoms: _56  and  _59
REMARK   20  A    between atoms: _59  and  _60
REMARK   21  A    between atoms: _60  and  _61
REMARK   22  A    between atoms: _67  and  _68
REMARK   23  A    between atoms: _73  and  _75
REMARK   24  A    between atoms: _75  and  _76
REMARK   25  A    between atoms: _75  and  _78
REMARK   26  A    between atoms: _81  and  _83
REMARK   27  A    between atoms: _83  and  _84
REMARK   28  A    between atoms: _83  and  _86
REMARK   29  A    between atoms: _86  and  _87
REMARK   30  A    between atoms: _90  and  _92
REMARK   31  A    between atoms: _92  and  _93
REMARK   32  A    between atoms: _96  and  _98
REMARK   33  A    between atoms: _98  and  _99
REMARK   34  A    between atoms: _98  and  _101
REMARK   35  A    between atoms: _101  and  _102
REMARK   36  A    between atoms: _102  and  _103
REMARK   37  A    between atoms: _103  and  _104
REMARK   38  A    between atoms: _104  and  _105
REMARK   39  A    between atoms: _109  and  _111
REMARK   40  A    between atoms: _111  and  _112
REMARK   41  A    between atoms: _111  and  _114
REMARK   42  A    between atoms: _114  and  _115
REMARK   43  A    between atoms: _118  and  _120
REMARK   44  A    between atoms: _120  and  _121
REMARK   45  A    between atoms: _120  and  _123
REMARK   46  A    between atoms: _123  and  _124
REMARK   47  A    between atoms: _129  and  _131
REMARK   48  A    between atoms: _131  and  _132
REMARK   49  A    between atoms: _131  and  _134
REMARK   50  A    between atoms: _134  and  _135
REMARK   51  A    between atoms: _138  and  _140
REMARK   52  A    between atoms: _140  and  _141
REMARK   53  A    between atoms: _140  and  _143
REMARK   54  A    between atoms: _143  and  _144
REMARK   55  A    between atoms: _149  and  _150
REMARK   56  A    between atoms: _152  and  _154
REMARK   57  A    between atoms: _154  and  _155
REMARK   58  A    between atoms: _154  and  _157
REMARK   59  A    between atoms: _157  and  _158
REMARK   60  A    between atoms: _163  and  _164
REMARK   61  A    between atoms: _166  and  _168
REMARK   62  A    between atoms: _168  and  _169
REMARK   63  A    between atoms: _168  and  _171
REMARK   64  A    between atoms: _171  and  _172
REMARK   65  A    between atoms: _175  and  _177
REMARK   66  A    between atoms: _177  and  _178
REMARK   67  A    between atoms: _177  and  _180
REMARK   68  A    between atoms: _180  and  _181
REMARK   69  A    between atoms: _181  and  _182
REMARK   70  A    between atoms: _184  and  _186
REMARK   71  A    between atoms: _186  and  _187
REMARK   72  A    between atoms: _186  and  _189
REMARK   73  A    between atoms: _189  and  _190
REMARK   74  A    between atoms: _193  and  _195
REMARK   75  A    between atoms: _195  and  _196
REMARK   76  A    between atoms: _195  and  _198
REMARK   77  A    between atoms: _198  and  _199
REMARK   78  A    between atoms: _199  and  _200
REMARK   79  A    between atoms: _202  and  _204
REMARK   80  A    between atoms: _204  and  _205
REMARK   81  A    between atoms: _204  and  _207
REMARK   82  A    between atoms: _207  and  _208
REMARK   83  A    between atoms: _208  and  _209
REMARK   84  A    between atoms: _211  and  _213
REMARK   85  A    between atoms: _213  and  _214
REMARK   86  A    between atoms: _213  and  _216
REMARK   87  A    between atoms: _216  and  _217
REMARK   88  A    between atoms: _223  and  _225
REMARK   89  A    between atoms: _225  and  _226
REMARK   90  A    between atoms: _225  and  _228
REMARK   91  A    between atoms: _228  and  _229
REMARK   92  A    between atoms: _234  and  _236
REMARK   93  A    between atoms: _236  and  _237
REMARK   94  A    between atoms: _236  and  _239
REMARK   95  A    between atoms: _241  and  _243
REMARK   96  A    between atoms: _243  and  _244
REMARK   97  A    between atoms: _243  and  _246
REMARK   98  A    between atoms: _246  and  _247
REMARK   99  A    between atoms: _252  and  _253
REMARK  100  A    between atoms: _255  and  _257
REMARK  101  A    between atoms: _257  and  _258
REMARK  102  A    between atoms: _257  and  _260
REMARK  103  A    between atoms: _260  and  _261
REMARK  104  A    between atoms: _266  and  _267
REMARK  105  A    between atoms: _269  and  _271
REMARK  106  A    between atoms: _271  and  _272
REMARK  107  A    between atoms: _271  and  _274
REMARK  108  A    between atoms: _274  and  _275
REMARK  109  A    between atoms: _280  and  _282
REMARK  110  A    between atoms: _282  and  _283
REMARK  111  A    between atoms: _282  and  _285
REMARK  112  A    between atoms: _285  and  _286
REMARK  113  A    between atoms: _286  and  _287
REMARK  114  A    between atoms: _287  and  _288
REMARK  115  A    between atoms: _288  and  _289
REMARK  116  A    between atoms: _293  and  _295
REMARK  117  A    between atoms: _295  and  _296
REMARK  118  A    between atoms: _295  and  _298
REMARK  119  A    between atoms: _298  and  _299
REMARK  120  A    between atoms: _302  and  _304
REMARK  121  A    between atoms: _304  and  _305
REMARK  122  A    between atoms: _304  and  _307
REMARK  123  A    between atoms: _307  and  _308
REMARK  124  A    between atoms: _311  and  _313
REMARK  125  A    between atoms: _313  and  _314
REMARK  126  A    between atoms: _313  and  _316
REMARK  127  A    between atoms: _319  and  _321
REMARK  128  A    between atoms: _321  and  _322
REMARK  129  A    between atoms: _321  and  _324
REMARK  130  A    between atoms: _324  and  _325
REMARK  131  A    between atoms: _325  and  _326
REMARK  132  A    between atoms: _328  and  _330
REMARK  133  A    between atoms: _330  and  _331
REMARK                            x       y       z     vdW  Elec       q    Type
REMARK                         _______ _______ _______ _____ _____    ______ ____
ROOT
ATOM      1  O   HOH     1      -6.266  17.085  -6.839  0.00  0.00    +0.000 OA
ENDROOT
TORSDOF 0
REMARK  Name = ../refined-set-2016/4xya/4xya_pocket.pdb
REMARK  133 active torsions:
REMARK  status: ('A' for Active; 'I' for Inactive)
REMARK    1  A    between atoms: _1  and  _3
REMARK    2  A    between atoms: _3  and  _4
REMARK    3  A    between atoms: _7  and  _9
REMARK    4  A    between atoms: _9  and  _10
REMARK    5  A    between atoms: _9  and  _12
REMARK    6  A    between atoms: _12  and  _13
REMARK    7  A    between atoms: _24  and  _25
REMARK    8  A    between atoms: _30  and  _32
REMARK    9  A    between atoms: _32  and  _33
REMARK   10  A    between atoms: _32  and  _35
REMARK   11  A    between atoms: _35  and  _36
REMARK   12  A    between atoms: _42  and  _44
REMARK   13  A    between atoms: _44  and  _45
REMARK   14  A    between atoms: _44  and  _47
REMARK   15  A    between atoms: _47  and  _48
REMARK   16  A    between atoms: _48  and  _49
REMARK   17  A    between atoms: _54  and  _56
REMARK   18  A    between atoms: _56  and  _57
REMARK   19  A    between atoms: _56  and  _59
REMARK   20  A    between atoms: _59  and  _60
REMARK   21  A    between atoms: _60  and  _61
REMARK   22  A    between atoms: _67  and  _68
REMARK   23  A    between atoms: _73  and  _75
REMARK   24  A    between atoms: _75  and  _76
REMARK   25  A    between atoms: _75  and  _78
REMARK   26  A    between atoms: _81  and  _83
REMARK   27  A    between atoms: _83  and  _84
REMARK   28  A    between atoms: _83  and  _86
REMARK   29  A    between atoms: _86  and  _87
REMARK   30  A    between atoms: _90  and  _92
REMARK   31  A    between atoms: _92  and  _93
REMARK   32  A    between atoms: _96  and  _98
REMARK   33  A    between atoms: _98  and  _99
REMARK   34  A    between atoms: _98  and  _101
REMARK   35  A    between atoms: _101  and  _102
REMARK   36  A    between atoms: _102  and  _103
REMARK   37  A    between atoms: _103  and  _104
REMARK   38  A    between atoms: _104  and  _105
REMARK   39  A    between atoms: _109  and  _111
REMARK   40  A    between atoms: _111  and  _112
REMARK   41  A    between atoms: _111  and  _114
REMARK   42  A    between atoms: _114  and  _115
REMARK   43  A    between atoms: _118  and  _120
REMARK   44  A    between atoms: _120  and  _121
REMARK   45  A    between atoms: _120  and  _123
REMARK   46  A    between atoms: _123  and  _124
REMARK   47  A    between atoms: _129  and  _131
REMARK   48  A    between atoms: _131  and  _132
REMARK   49  A    between atoms: _131  and  _134
REMARK   50  A    between atoms: _134  and  _135
REMARK   51  A    between atoms: _138  and  _140
REMARK   52  A    between atoms: _140  and  _141
REMARK   53  A    between atoms: _140  and  _143
REMARK   54  A    between atoms: _143  and  _144
REMARK   55  A    between atoms: _149  and  _150
REMARK   56  A    between atoms: _152  and  _154
REMARK   57  A    between atoms: _154  and  _155
REMARK   58  A    between atoms: _154  and  _157
REMARK   59  A    between atoms: _157  and  _158
REMARK   60  A    between atoms: _163  and  _164
REMARK   61  A    between atoms: _166  and  _168
REMARK   62  A    between atoms: _168  and  _169
REMARK   63  A    between atoms: _168  and  _171
REMARK   64  A    between atoms: _171  and  _172
REMARK   65  A    between atoms: _175  and  _177
REMARK   66  A    between atoms: _177  and  _178
REMARK   67  A    between atoms: _177  and  _180
REMARK   68  A    between atoms: _180  and  _181
REMARK   69  A    between atoms: _181  and  _182
REMARK   70  A    between atoms: _184  and  _186
REMARK   71  A    between atoms: _186  and  _187
REMARK   72  A    between atoms: _186  and  _189
REMARK   73  A    between atoms: _189  and  _190
REMARK   74  A    between atoms: _193  and  _195
REMARK   75  A    between atoms: _195  and  _196
REMARK   76  A    between atoms: _195  and  _198
REMARK   77  A    between atoms: _198  and  _199
REMARK   78  A    between atoms: _199  and  _200
REMARK   79  A    between atoms: _202  and  _204
REMARK   80  A    between atoms: _204  and  _205
REMARK   81  A    between atoms: _204  and  _207
REMARK   82  A    between atoms: _207  and  _208
REMARK   83  A    between atoms: _208  and  _209
REMARK   84  A    between atoms: _211  and  _213
REMARK   85  A    between atoms: _213  and  _214
REMARK   86  A    between atoms: _213  and  _216
REMARK   87  A    between atoms: _216  and  _217
REMARK   88  A    between atoms: _223  and  _225
REMARK   89  A    between atoms: _225  and  _226
REMARK   90  A    between atoms: _225  and  _228
REMARK   91  A    between atoms: _228  and  _229
REMARK   92  A    between atoms: _234  and  _236
REMARK   93  A    between atoms: _236  and  _237
REMARK   94  A    between atoms: _236  and  _239
REMARK   95  A    between atoms: _241  and  _243
REMARK   96  A    between atoms: _243  and  _244
REMARK   97  A    between atoms: _243  and  _246
REMARK   98  A    between atoms: _246  and  _247
REMARK   99  A    between atoms: _252  and  _253
REMARK  100  A    between atoms: _255  and  _257
REMARK  101  A    between atoms: _257  and  _258
REMARK  102  A    between atoms: _257  and  _260
REMARK  103  A    between atoms: _260  and  _261
REMARK  104  A    between atoms: _266  and  _267
REMARK  105  A    between atoms: _269  and  _271
REMARK  106  A    between atoms: _271  and  _272
REMARK  107  A    between atoms: _271  and  _274
REMARK  108  A    between atoms: _274  and  _275
REMARK  109  A    between atoms: _280  and  _282
REMARK  110  A    between atoms: _282  and  _283
REMARK  111  A    between atoms: _282  and  _285
REMARK  112  A    between atoms: _285  and  _286
REMARK  113  A    between atoms: _286  and  _287
REMARK  114  A    between atoms: _287  and  _288
REMARK  115  A    between atoms: _288  and  _289
REMARK  116  A    between atoms: _293  and  _295
REMARK  117  A    between atoms: _295  and  _296
REMARK  118  A    between atoms: _295  and  _298
REMARK  119  A    between atoms: _298  and  _299
REMARK  120  A    between atoms: _302  and  _304
REMARK  121  A    between atoms: _304  and  _305
REMARK  122  A    between atoms: _304  and  _307
REMARK  123  A    between atoms: _307  and  _308
REMARK  124  A    between atoms: _311  and  _313
REMARK  125  A    between atoms: _313  and  _314
REMARK  126  A    between atoms: _313  and  _316
REMARK  127  A    between atoms: _319  and  _321
REMARK  128  A    between atoms: _321  and  _322
REMARK  129  A    between atoms: _321  and  _324
REMARK  130  A    between atoms: _324  and  _325
REMARK  131  A    between atoms: _325  and  _326
REMARK  132  A    between atoms: _328  and  _330
REMARK  133  A    between atoms: _330  and  _331
REMARK                            x       y       z     vdW  Elec       q    Type
REMARK                         _______ _______ _______ _____ _____    ______ ____
ROOT
ATOM      1  O   HOH     1      -3.567  20.957   4.193  0.00  0.00    +0.000 OA
ENDROOT
TORSDOF 0
REMARK  Name = ../refined-set-2016/4xya/4xya_pocket.pdb
REMARK  133 active torsions:
REMARK  status: ('A' for Active; 'I' for Inactive)
REMARK    1  A    between atoms: _1  and  _3
REMARK    2  A    between atoms: _3  and  _4
REMARK    3  A    between atoms: _7  and  _9
REMARK    4  A    between atoms: _9  and  _10
REMARK    5  A    between atoms: _9  and  _12
REMARK    6  A    between atoms: _12  and  _13
REMARK    7  A    between atoms: _24  and  _25
REMARK    8  A    between atoms: _30  and  _32
REMARK    9  A    between atoms: _32  and  _33
REMARK   10  A    between atoms: _32  and  _35
REMARK   11  A    between atoms: _35  and  _36
REMARK   12  A    between atoms: _42  and  _44
REMARK   13  A    between atoms: _44  and  _45
REMARK   14  A    between atoms: _44  and  _47
REMARK   15  A    between atoms: _47  and  _48
REMARK   16  A    between atoms: _48  and  _49
REMARK   17  A    between atoms: _54  and  _56
REMARK   18  A    between atoms: _56  and  _57
REMARK   19  A    between atoms: _56  and  _59
REMARK   20  A    between atoms: _59  and  _60
REMARK   21  A    between atoms: _60  and  _61
REMARK   22  A    between atoms: _67  and  _68
REMARK   23  A    between atoms: _73  and  _75
REMARK   24  A    between atoms: _75  and  _76
REMARK   25  A    between atoms: _75  and  _78
REMARK   26  A    between atoms: _81  and  _83
REMARK   27  A    between atoms: _83  and  _84
REMARK   28  A    between atoms: _83  and  _86
REMARK   29  A    between atoms: _86  and  _87
REMARK   30  A    between atoms: _90  and  _92
REMARK   31  A    between atoms: _92  and  _93
REMARK   32  A    between atoms: _96  and  _98
REMARK   33  A    between atoms: _98  and  _99
REMARK   34  A    between atoms: _98  and  _101
REMARK   35  A    between atoms: _101  and  _102
REMARK   36  A    between atoms: _102  and  _103
REMARK   37  A    between atoms: _103  and  _104
REMARK   38  A    between atoms: _104  and  _105
REMARK   39  A    between atoms: _109  and  _111
REMARK   40  A    between atoms: _111  and  _112
REMARK   41  A    between atoms: _111  and  _114
REMARK   42  A    between atoms: _114  and  _115
REMARK   43  A    between atoms: _118  and  _120
REMARK   44  A    between atoms: _120  and  _121
REMARK   45  A    between atoms: _120  and  _123
REMARK   46  A    between atoms: _123  and  _124
REMARK   47  A    between atoms: _129  and  _131
REMARK   48  A    between atoms: _131  and  _132
REMARK   49  A    between atoms: _131  and  _134
REMARK   50  A    between atoms: _134  and  _135
REMARK   51  A    between atoms: _138  and  _140
REMARK   52  A    between atoms: _140  and  _141
REMARK   53  A    between atoms: _140  and  _143
REMARK   54  A    between atoms: _143  and  _144
REMARK   55  A    between atoms: _149  and  _150
REMARK   56  A    between atoms: _152  and  _154
REMARK   57  A    between atoms: _154  and  _155
REMARK   58  A    between atoms: _154  and  _157
REMARK   59  A    between atoms: _157  and  _158
REMARK   60  A    between atoms: _163  and  _164
REMARK   61  A    between atoms: _166  and  _168
REMARK   62  A    between atoms: _168  and  _169
REMARK   63  A    between atoms: _168  and  _171
REMARK   64  A    between atoms: _171  and  _172
REMARK   65  A    between atoms: _175  and  _177
REMARK   66  A    between atoms: _177  and  _178
REMARK   67  A    between atoms: _177  and  _180
REMARK   68  A    between atoms: _180  and  _181
REMARK   69  A    between atoms: _181  and  _182
REMARK   70  A    between atoms: _184  and  _186
REMARK   71  A    between atoms: _186  and  _187
REMARK   72  A    between atoms: _186  and  _189
REMARK   73  A    between atoms: _189  and  _190
REMARK   74  A    between atoms: _193  and  _195
REMARK   75  A    between atoms: _195  and  _196
REMARK   76  A    between atoms: _195  and  _198
REMARK   77  A    between atoms: _198  and  _199
REMARK   78  A    between atoms: _199  and  _200
REMARK   79  A    between atoms: _202  and  _204
REMARK   80  A    between atoms: _204  and  _205
REMARK   81  A    between atoms: _204  and  _207
REMARK   82  A    between atoms: _207  and  _208
REMARK   83  A    between atoms: _208  and  _209
REMARK   84  A    between atoms: _211  and  _213
REMARK   85  A    between atoms: _213  and  _214
REMARK   86  A    between atoms: _213  and  _216
REMARK   87  A    between atoms: _216  and  _217
REMARK   88  A    between atoms: _223  and  _225
REMARK   89  A    between atoms: _225  and  _226
REMARK   90  A    between atoms: _225  and  _228
REMARK   91  A    between atoms: _228  and  _229
REMARK   92  A    between atoms: _234  and  _236
REMARK   93  A    between atoms: _236  and  _237
REMARK   94  A    between atoms: _236  and  _239
REMARK   95  A    between atoms: _241  and  _243
REMARK   96  A    between atoms: _243  and  _244
REMARK   97  A    between atoms: _243  and  _246
REMARK   98  A    between atoms: _246  and  _247
REMARK   99  A    between atoms: _252  and  _253
REMARK  100  A    between atoms: _255  and  _257
REMARK  101  A    between atoms: _257  and  _258
REMARK  102  A    between atoms: _257  and  _260
REMARK  103  A    between atoms: _260  and  _261
REMARK  104  A    between atoms: _266  and  _267
REMARK  105  A    between atoms: _269  and  _271
REMARK  106  A    between atoms: _271  and  _272
REMARK  107  A    between atoms: _271  and  _274
REMARK  108  A    between atoms: _274  and  _275
REMARK  109  A    between atoms: _280  and  _282
REMARK  110  A    between atoms: _282  and  _283
REMARK  111  A    between atoms: _282  and  _285
REMARK  112  A    between atoms: _285  and  _286
REMARK  113  A    between atoms: _286  and  _287
REMARK  114  A    between atoms: _287  and  _288
REMARK  115  A    between atoms: _288  and  _289
REMARK  116  A    between atoms: _293  and  _295
REMARK  117  A    between atoms: _295  and  _296
REMARK  118  A    between atoms: _295  and  _298
REMARK  119  A    between atoms: _298  and  _299
REMARK  120  A    between atoms: _302  and  _304
REMARK  121  A    between atoms: _304  and  _305
REMARK  122  A    between atoms: _304  and  _307
REMARK  123  A    between atoms: _307  and  _308
REMARK  124  A    between atoms: _311  and  _313
REMARK  125  A    between atoms: _313  and  _314
REMARK  126  A    between atoms: _313  and  _316
REMARK  127  A    between atoms: _319  and  _321
REMARK  128  A    between atoms: _321  and  _322
REMARK  129  A    between atoms: _321  and  _324
REMARK  130  A    between atoms: _324  and  _325
REMARK  131  A    between atoms: _325  and  _326
REMARK  132  A    between atoms: _328  and  _330
REMARK  133  A    between atoms: _330  and  _331
REMARK                            x       y       z     vdW  Elec       q    Type
REMARK                         _______ _______ _______ _____ _____    ______ ____
ROOT
ATOM      1  O   HOH     1     -10.675  13.069   8.782  0.00  0.00    +0.000 OA
ENDROOT
TORSDOF 0
REMARK  Name = ../refined-set-2016/4xya/4xya_pocket.pdb
REMARK  133 active torsions:
REMARK  status: ('A' for Active; 'I' for Inactive)
REMARK    1  A    between atoms: _1  and  _3
REMARK    2  A    between atoms: _3  and  _4
REMARK    3  A    between atoms: _7  and  _9
REMARK    4  A    between atoms: _9  and  _10
REMARK    5  A    between atoms: _9  and  _12
REMARK    6  A    between atoms: _12  and  _13
REMARK    7  A    between atoms: _24  and  _25
REMARK    8  A    between atoms: _30  and  _32
REMARK    9  A    between atoms: _32  and  _33
REMARK   10  A    between atoms: _32  and  _35
REMARK   11  A    between atoms: _35  and  _36
REMARK   12  A    between atoms: _42  and  _44
REMARK   13  A    between atoms: _44  and  _45
REMARK   14  A    between atoms: _44  and  _47
REMARK   15  A    between atoms: _47  and  _48
REMARK   16  A    between atoms: _48  and  _49
REMARK   17  A    between atoms: _54  and  _56
REMARK   18  A    between atoms: _56  and  _57
REMARK   19  A    between atoms: _56  and  _59
REMARK   20  A    between atoms: _59  and  _60
REMARK   21  A    between atoms: _60  and  _61
REMARK   22  A    between atoms: _67  and  _68
REMARK   23  A    between atoms: _73  and  _75
REMARK   24  A    between atoms: _75  and  _76
REMARK   25  A    between atoms: _75  and  _78
REMARK   26  A    between atoms: _81  and  _83
REMARK   27  A    between atoms: _83  and  _84
REMARK   28  A    between atoms: _83  and  _86
REMARK   29  A    between atoms: _86  and  _87
REMARK   30  A    between atoms: _90  and  _92
REMARK   31  A    between atoms: _92  and  _93
REMARK   32  A    between atoms: _96  and  _98
REMARK   33  A    between atoms: _98  and  _99
REMARK   34  A    between atoms: _98  and  _101
REMARK   35  A    between atoms: _101  and  _102
REMARK   36  A    between atoms: _102  and  _103
REMARK   37  A    between atoms: _103  and  _104
REMARK   38  A    between atoms: _104  and  _105
REMARK   39  A    between atoms: _109  and  _111
REMARK   40  A    between atoms: _111  and  _112
REMARK   41  A    between atoms: _111  and  _114
REMARK   42  A    between atoms: _114  and  _115
REMARK   43  A    between atoms: _118  and  _120
REMARK   44  A    between atoms: _120  and  _121
REMARK   45  A    between atoms: _120  and  _123
REMARK   46  A    between atoms: _123  and  _124
REMARK   47  A    between atoms: _129  and  _131
REMARK   48  A    between atoms: _131  and  _132
REMARK   49  A    between atoms: _131  and  _134
REMARK   50  A    between atoms: _134  and  _135
REMARK   51  A    between atoms: _138  and  _140
REMARK   52  A    between atoms: _140  and  _141
REMARK   53  A    between atoms: _140  and  _143
REMARK   54  A    between atoms: _143  and  _144
REMARK   55  A    between atoms: _149  and  _150
REMARK   56  A    between atoms: _152  and  _154
REMARK   57  A    between atoms: _154  and  _155
REMARK   58  A    between atoms: _154  and  _157
REMARK   59  A    between atoms: _157  and  _158
REMARK   60  A    between atoms: _163  and  _164
REMARK   61  A    between atoms: _166  and  _168
REMARK   62  A    between atoms: _168  and  _169
REMARK   63  A    between atoms: _168  and  _171
REMARK   64  A    between atoms: _171  and  _172
REMARK   65  A    between atoms: _175  and  _177
REMARK   66  A    between atoms: _177  and  _178
REMARK   67  A    between atoms: _177  and  _180
REMARK   68  A    between atoms: _180  and  _181
REMARK   69  A    between atoms: _181  and  _182
REMARK   70  A    between atoms: _184  and  _186
REMARK   71  A    between atoms: _186  and  _187
REMARK   72  A    between atoms: _186  and  _189
REMARK   73  A    between atoms: _189  and  _190
REMARK   74  A    between atoms: _193  and  _195
REMARK   75  A    between atoms: _195  and  _196
REMARK   76  A    between atoms: _195  and  _198
REMARK   77  A    between atoms: _198  and  _199
REMARK   78  A    between atoms: _199  and  _200
REMARK   79  A    between atoms: _202  and  _204
REMARK   80  A    between atoms: _204  and  _205
REMARK   81  A    between atoms: _204  and  _207
REMARK   82  A    between atoms: _207  and  _208
REMARK   83  A    between atoms: _208  and  _209
REMARK   84  A    between atoms: _211  and  _213
REMARK   85  A    between atoms: _213  and  _214
REMARK   86  A    between atoms: _213  and  _216
REMARK   87  A    between atoms: _216  and  _217
REMARK   88  A    between atoms: _223  and  _225
REMARK   89  A    between atoms: _225  and  _226
REMARK   90  A    between atoms: _225  and  _228
REMARK   91  A    between atoms: _228  and  _229
REMARK   92  A    between atoms: _234  and  _236
REMARK   93  A    between atoms: _236  and  _237
REMARK   94  A    between atoms: _236  and  _239
REMARK   95  A    between atoms: _241  and  _243
REMARK   96  A    between atoms: _243  and  _244
REMARK   97  A    between atoms: _243  and  _246
REMARK   98  A    between atoms: _246  and  _247
REMARK   99  A    between atoms: _252  and  _253
REMARK  100  A    between atoms: _255  and  _257
REMARK  101  A    between atoms: _257  and  _258
REMARK  102  A    between atoms: _257  and  _260
REMARK  103  A    between atoms: _260  and  _261
REMARK  104  A    between atoms: _266  and  _267
REMARK  105  A    between atoms: _269  and  _271
REMARK  106  A    between atoms: _271  and  _272
REMARK  107  A    between atoms: _271  and  _274
REMARK  108  A    between atoms: _274  and  _275
REMARK  109  A    between atoms: _280  and  _282
REMARK  110  A    between atoms: _282  and  _283
REMARK  111  A    between atoms: _282  and  _285
REMARK  112  A    between atoms: _285  and  _286
REMARK  113  A    between atoms: _286  and  _287
REMARK  114  A    between atoms: _287  and  _288
REMARK  115  A    between atoms: _288  and  _289
REMARK  116  A    between atoms: _293  and  _295
REMARK  117  A    between atoms: _295  and  _296
REMARK  118  A    between atoms: _295  and  _298
REMARK  119  A    between atoms: _298  and  _299
REMARK  120  A    between atoms: _302  and  _304
REMARK  121  A    between atoms: _304  and  _305
REMARK  122  A    between atoms: _304  and  _307
REMARK  123  A    between atoms: _307  and  _308
REMARK  124  A    between atoms: _311  and  _313
REMARK  125  A    between atoms: _313  and  _314
REMARK  126  A    between atoms: _313  and  _316
REMARK  127  A    between atoms: _319  and  _321
REMARK  128  A    between atoms: _321  and  _322
REMARK  129  A    between atoms: _321  and  _324
REMARK  130  A    between atoms: _324  and  _325
REMARK  131  A    between atoms: _325  and  _326
REMARK  132  A    between atoms: _328  and  _330
REMARK  133  A    between atoms: _330  and  _331
REMARK                            x       y       z     vdW  Elec       q    Type
REMARK                         _______ _______ _______ _____ _____    ______ ____
ROOT
ATOM      1  O   HOH     1      -7.721  18.625   4.938  0.00  0.00    +0.000 OA
ENDROOT
TORSDOF 0
REMARK  Name = ../refined-set-2016/4xya/4xya_pocket.pdb
REMARK  133 active torsions:
REMARK  status: ('A' for Active; 'I' for Inactive)
REMARK    1  A    between atoms: _1  and  _3
REMARK    2  A    between atoms: _3  and  _4
REMARK    3  A    between atoms: _7  and  _9
REMARK    4  A    between atoms: _9  and  _10
REMARK    5  A    between atoms: _9  and  _12
REMARK    6  A    between atoms: _12  and  _13
REMARK    7  A    between atoms: _24  and  _25
REMARK    8  A    between atoms: _30  and  _32
REMARK    9  A    between atoms: _32  and  _33
REMARK   10  A    between atoms: _32  and  _35
REMARK   11  A    between atoms: _35  and  _36
REMARK   12  A    between atoms: _42  and  _44
REMARK   13  A    between atoms: _44  and  _45
REMARK   14  A    between atoms: _44  and  _47
REMARK   15  A    between atoms: _47  and  _48
REMARK   16  A    between atoms: _48  and  _49
REMARK   17  A    between atoms: _54  and  _56
REMARK   18  A    between atoms: _56  and  _57
REMARK   19  A    between atoms: _56  and  _59
REMARK   20  A    between atoms: _59  and  _60
REMARK   21  A    between atoms: _60  and  _61
REMARK   22  A    between atoms: _67  and  _68
REMARK   23  A    between atoms: _73  and  _75
REMARK   24  A    between atoms: _75  and  _76
REMARK   25  A    between atoms: _75  and  _78
REMARK   26  A    between atoms: _81  and  _83
REMARK   27  A    between atoms: _83  and  _84
REMARK   28  A    between atoms: _83  and  _86
REMARK   29  A    between atoms: _86  and  _87
REMARK   30  A    between atoms: _90  and  _92
REMARK   31  A    between atoms: _92  and  _93
REMARK   32  A    between atoms: _96  and  _98
REMARK   33  A    between atoms: _98  and  _99
REMARK   34  A    between atoms: _98  and  _101
REMARK   35  A    between atoms: _101  and  _102
REMARK   36  A    between atoms: _102  and  _103
REMARK   37  A    between atoms: _103  and  _104
REMARK   38  A    between atoms: _104  and  _105
REMARK   39  A    between atoms: _109  and  _111
REMARK   40  A    between atoms: _111  and  _112
REMARK   41  A    between atoms: _111  and  _114
REMARK   42  A    between atoms: _114  and  _115
REMARK   43  A    between atoms: _118  and  _120
REMARK   44  A    between atoms: _120  and  _121
REMARK   45  A    between atoms: _120  and  _123
REMARK   46  A    between atoms: _123  and  _124
REMARK   47  A    between atoms: _129  and  _131
REMARK   48  A    between atoms: _131  and  _132
REMARK   49  A    between atoms: _131  and  _134
REMARK   50  A    between atoms: _134  and  _135
REMARK   51  A    between atoms: _138  and  _140
REMARK   52  A    between atoms: _140  and  _141
REMARK   53  A    between atoms: _140  and  _143
REMARK   54  A    between atoms: _143  and  _144
REMARK   55  A    between atoms: _149  and  _150
REMARK   56  A    between atoms: _152  and  _154
REMARK   57  A    between atoms: _154  and  _155
REMARK   58  A    between atoms: _154  and  _157
REMARK   59  A    between atoms: _157  and  _158
REMARK   60  A    between atoms: _163  and  _164
REMARK   61  A    between atoms: _166  and  _168
REMARK   62  A    between atoms: _168  and  _169
REMARK   63  A    between atoms: _168  and  _171
REMARK   64  A    between atoms: _171  and  _172
REMARK   65  A    between atoms: _175  and  _177
REMARK   66  A    between atoms: _177  and  _178
REMARK   67  A    between atoms: _177  and  _180
REMARK   68  A    between atoms: _180  and  _181
REMARK   69  A    between atoms: _181  and  _182
REMARK   70  A    between atoms: _184  and  _186
REMARK   71  A    between atoms: _186  and  _187
REMARK   72  A    between atoms: _186  and  _189
REMARK   73  A    between atoms: _189  and  _190
REMARK   74  A    between atoms: _193  and  _195
REMARK   75  A    between atoms: _195  and  _196
REMARK   76  A    between atoms: _195  and  _198
REMARK   77  A    between atoms: _198  and  _199
REMARK   78  A    between atoms: _199  and  _200
REMARK   79  A    between atoms: _202  and  _204
REMARK   80  A    between atoms: _204  and  _205
REMARK   81  A    between atoms: _204  and  _207
REMARK   82  A    between atoms: _207  and  _208
REMARK   83  A    between atoms: _208  and  _209
REMARK   84  A    between atoms: _211  and  _213
REMARK   85  A    between atoms: _213  and  _214
REMARK   86  A    between atoms: _213  and  _216
REMARK   87  A    between atoms: _216  and  _217
REMARK   88  A    between atoms: _223  and  _225
REMARK   89  A    between atoms: _225  and  _226
REMARK   90  A    between atoms: _225  and  _228
REMARK   91  A    between atoms: _228  and  _229
REMARK   92  A    between atoms: _234  and  _236
REMARK   93  A    between atoms: _236  and  _237
REMARK   94  A    between atoms: _236  and  _239
REMARK   95  A    between atoms: _241  and  _243
REMARK   96  A    between atoms: _243  and  _244
REMARK   97  A    between atoms: _243  and  _246
REMARK   98  A    between atoms: _246  and  _247
REMARK   99  A    between atoms: _252  and  _253
REMARK  100  A    between atoms: _255  and  _257
REMARK  101  A    between atoms: _257  and  _258
REMARK  102  A    between atoms: _257  and  _260
REMARK  103  A    between atoms: _260  and  _261
REMARK  104  A    between atoms: _266  and  _267
REMARK  105  A    between atoms: _269  and  _271
REMARK  106  A    between atoms: _271  and  _272
REMARK  107  A    between atoms: _271  and  _274
REMARK  108  A    between atoms: _274  and  _275
REMARK  109  A    between atoms: _280  and  _282
REMARK  110  A    between atoms: _282  and  _283
REMARK  111  A    between atoms: _282  and  _285
REMARK  112  A    between atoms: _285  and  _286
REMARK  113  A    between atoms: _286  and  _287
REMARK  114  A    between atoms: _287  and  _288
REMARK  115  A    between atoms: _288  and  _289
REMARK  116  A    between atoms: _293  and  _295
REMARK  117  A    between atoms: _295  and  _296
REMARK  118  A    between atoms: _295  and  _298
REMARK  119  A    between atoms: _298  and  _299
REMARK  120  A    between atoms: _302  and  _304
REMARK  121  A    between atoms: _304  and  _305
REMARK  122  A    between atoms: _304  and  _307
REMARK  123  A    between atoms: _307  and  _308
REMARK  124  A    between atoms: _311  and  _313
REMARK  125  A    between atoms: _313  and  _314
REMARK  126  A    between atoms: _313  and  _316
REMARK  127  A    between atoms: _319  and  _321
REMARK  128  A    between atoms: _321  and  _322
REMARK  129  A    between atoms: _321  and  _324
REMARK  130  A    between atoms: _324  and  _325
REMARK  131  A    between atoms: _325  and  _326
REMARK  132  A    between atoms: _328  and  _330
REMARK  133  A    between atoms: _330  and  _331
REMARK                            x       y       z     vdW  Elec       q    Type
REMARK                         _______ _______ _______ _____ _____    ______ ____
ROOT
ATOM      1  O   HOH     1      -5.796  20.325   5.220  0.00  0.00    +0.000 OA
ENDROOT
TORSDOF 0
REMARK  Name = ../refined-set-2016/4xya/4xya_pocket.pdb
REMARK  133 active torsions:
REMARK  status: ('A' for Active; 'I' for Inactive)
REMARK    1  A    between atoms: _1  and  _3
REMARK    2  A    between atoms: _3  and  _4
REMARK    3  A    between atoms: _7  and  _9
REMARK    4  A    between atoms: _9  and  _10
REMARK    5  A    between atoms: _9  and  _12
REMARK    6  A    between atoms: _12  and  _13
REMARK    7  A    between atoms: _24  and  _25
REMARK    8  A    between atoms: _30  and  _32
REMARK    9  A    between atoms: _32  and  _33
REMARK   10  A    between atoms: _32  and  _35
REMARK   11  A    between atoms: _35  and  _36
REMARK   12  A    between atoms: _42  and  _44
REMARK   13  A    between atoms: _44  and  _45
REMARK   14  A    between atoms: _44  and  _47
REMARK   15  A    between atoms: _47  and  _48
REMARK   16  A    between atoms: _48  and  _49
REMARK   17  A    between atoms: _54  and  _56
REMARK   18  A    between atoms: _56  and  _57
REMARK   19  A    between atoms: _56  and  _59
REMARK   20  A    between atoms: _59  and  _60
REMARK   21  A    between atoms: _60  and  _61
REMARK   22  A    between atoms: _67  and  _68
REMARK   23  A    between atoms: _73  and  _75
REMARK   24  A    between atoms: _75  and  _76
REMARK   25  A    between atoms: _75  and  _78
REMARK   26  A    between atoms: _81  and  _83
REMARK   27  A    between atoms: _83  and  _84
REMARK   28  A    between atoms: _83  and  _86
REMARK   29  A    between atoms: _86  and  _87
REMARK   30  A    between atoms: _90  and  _92
REMARK   31  A    between atoms: _92  and  _93
REMARK   32  A    between atoms: _96  and  _98
REMARK   33  A    between atoms: _98  and  _99
REMARK   34  A    between atoms: _98  and  _101
REMARK   35  A    between atoms: _101  and  _102
REMARK   36  A    between atoms: _102  and  _103
REMARK   37  A    between atoms: _103  and  _104
REMARK   38  A    between atoms: _104  and  _105
REMARK   39  A    between atoms: _109  and  _111
REMARK   40  A    between atoms: _111  and  _112
REMARK   41  A    between atoms: _111  and  _114
REMARK   42  A    between atoms: _114  and  _115
REMARK   43  A    between atoms: _118  and  _120
REMARK   44  A    between atoms: _120  and  _121
REMARK   45  A    between atoms: _120  and  _123
REMARK   46  A    between atoms: _123  and  _124
REMARK   47  A    between atoms: _129  and  _131
REMARK   48  A    between atoms: _131  and  _132
REMARK   49  A    between atoms: _131  and  _134
REMARK   50  A    between atoms: _134  and  _135
REMARK   51  A    between atoms: _138  and  _140
REMARK   52  A    between atoms: _140  and  _141
REMARK   53  A    between atoms: _140  and  _143
REMARK   54  A    between atoms: _143  and  _144
REMARK   55  A    between atoms: _149  and  _150
REMARK   56  A    between atoms: _152  and  _154
REMARK   57  A    between atoms: _154  and  _155
REMARK   58  A    between atoms: _154  and  _157
REMARK   59  A    between atoms: _157  and  _158
REMARK   60  A    between atoms: _163  and  _164
REMARK   61  A    between atoms: _166  and  _168
REMARK   62  A    between atoms: _168  and  _169
REMARK   63  A    between atoms: _168  and  _171
REMARK   64  A    between atoms: _171  and  _172
REMARK   65  A    between atoms: _175  and  _177
REMARK   66  A    between atoms: _177  and  _178
REMARK   67  A    between atoms: _177  and  _180
REMARK   68  A    between atoms: _180  and  _181
REMARK   69  A    between atoms: _181  and  _182
REMARK   70  A    between atoms: _184  and  _186
REMARK   71  A    between atoms: _186  and  _187
REMARK   72  A    between atoms: _186  and  _189
REMARK   73  A    between atoms: _189  and  _190
REMARK   74  A    between atoms: _193  and  _195
REMARK   75  A    between atoms: _195  and  _196
REMARK   76  A    between atoms: _195  and  _198
REMARK   77  A    between atoms: _198  and  _199
REMARK   78  A    between atoms: _199  and  _200
REMARK   79  A    between atoms: _202  and  _204
REMARK   80  A    between atoms: _204  and  _205
REMARK   81  A    between atoms: _204  and  _207
REMARK   82  A    between atoms: _207  and  _208
REMARK   83  A    between atoms: _208  and  _209
REMARK   84  A    between atoms: _211  and  _213
REMARK   85  A    between atoms: _213  and  _214
REMARK   86  A    between atoms: _213  and  _216
REMARK   87  A    between atoms: _216  and  _217
REMARK   88  A    between atoms: _223  and  _225
REMARK   89  A    between atoms: _225  and  _226
REMARK   90  A    between atoms: _225  and  _228
REMARK   91  A    between atoms: _228  and  _229
REMARK   92  A    between atoms: _234  and  _236
REMARK   93  A    between atoms: _236  and  _237
REMARK   94  A    between atoms: _236  and  _239
REMARK   95  A    between atoms: _241  and  _243
REMARK   96  A    between atoms: _243  and  _244
REMARK   97  A    between atoms: _243  and  _246
REMARK   98  A    between atoms: _246  and  _247
REMARK   99  A    between atoms: _252  and  _253
REMARK  100  A    between atoms: _255  and  _257
REMARK  101  A    between atoms: _257  and  _258
REMARK  102  A    between atoms: _257  and  _260
REMARK  103  A    between atoms: _260  and  _261
REMARK  104  A    between atoms: _266  and  _267
REMARK  105  A    between atoms: _269  and  _271
REMARK  106  A    between atoms: _271  and  _272
REMARK  107  A    between atoms: _271  and  _274
REMARK  108  A    between atoms: _274  and  _275
REMARK  109  A    between atoms: _280  and  _282
REMARK  110  A    between atoms: _282  and  _283
REMARK  111  A    between atoms: _282  and  _285
REMARK  112  A    between atoms: _285  and  _286
REMARK  113  A    between atoms: _286  and  _287
REMARK  114  A    between atoms: _287  and  _288
REMARK  115  A    between atoms: _288  and  _289
REMARK  116  A    between atoms: _293  and  _295
REMARK  117  A    between atoms: _295  and  _296
REMARK  118  A    between atoms: _295  and  _298
REMARK  119  A    between atoms: _298  and  _299
REMARK  120  A    between atoms: _302  and  _304
REMARK  121  A    between atoms: _304  and  _305
REMARK  122  A    between atoms: _304  and  _307
REMARK  123  A    between atoms: _307  and  _308
REMARK  124  A    between atoms: _311  and  _313
REMARK  125  A    between atoms: _313  and  _314
REMARK  126  A    between atoms: _313  and  _316
REMARK  127  A    between atoms: _319  and  _321
REMARK  128  A    between atoms: _321  and  _322
REMARK  129  A    between atoms: _321  and  _324
REMARK  130  A    between atoms: _324  and  _325
REMARK  131  A    between atoms: _325  and  _326
REMARK  132  A    between atoms: _328  and  _330
REMARK  133  A    between atoms: _330  and  _331
REMARK                            x       y       z     vdW  Elec       q    Type
REMARK                         _______ _______ _______ _____ _____    ______ ____
ROOT
ATOM      1  O   HOH     1      -2.580  19.116   6.518  0.00  0.00    +0.000 OA
ENDROOT
TORSDOF 0
REMARK  Name = ../refined-set-2016/4xya/4xya_pocket.pdb
REMARK  133 active torsions:
REMARK  status: ('A' for Active; 'I' for Inactive)
REMARK    1  A    between atoms: _1  and  _3
REMARK    2  A    between atoms: _3  and  _4
REMARK    3  A    between atoms: _7  and  _9
REMARK    4  A    between atoms: _9  and  _10
REMARK    5  A    between atoms: _9  and  _12
REMARK    6  A    between atoms: _12  and  _13
REMARK    7  A    between atoms: _24  and  _25
REMARK    8  A    between atoms: _30  and  _32
REMARK    9  A    between atoms: _32  and  _33
REMARK   10  A    between atoms: _32  and  _35
REMARK   11  A    between atoms: _35  and  _36
REMARK   12  A    between atoms: _42  and  _44
REMARK   13  A    between atoms: _44  and  _45
REMARK   14  A    between atoms: _44  and  _47
REMARK   15  A    between atoms: _47  and  _48
REMARK   16  A    between atoms: _48  and  _49
REMARK   17  A    between atoms: _54  and  _56
REMARK   18  A    between atoms: _56  and  _57
REMARK   19  A    between atoms: _56  and  _59
REMARK   20  A    between atoms: _59  and  _60
REMARK   21  A    between atoms: _60  and  _61
REMARK   22  A    between atoms: _67  and  _68
REMARK   23  A    between atoms: _73  and  _75
REMARK   24  A    between atoms: _75  and  _76
REMARK   25  A    between atoms: _75  and  _78
REMARK   26  A    between atoms: _81  and  _83
REMARK   27  A    between atoms: _83  and  _84
REMARK   28  A    between atoms: _83  and  _86
REMARK   29  A    between atoms: _86  and  _87
REMARK   30  A    between atoms: _90  and  _92
REMARK   31  A    between atoms: _92  and  _93
REMARK   32  A    between atoms: _96  and  _98
REMARK   33  A    between atoms: _98  and  _99
REMARK   34  A    between atoms: _98  and  _101
REMARK   35  A    between atoms: _101  and  _102
REMARK   36  A    between atoms: _102  and  _103
REMARK   37  A    between atoms: _103  and  _104
REMARK   38  A    between atoms: _104  and  _105
REMARK   39  A    between atoms: _109  and  _111
REMARK   40  A    between atoms: _111  and  _112
REMARK   41  A    between atoms: _111  and  _114
REMARK   42  A    between atoms: _114  and  _115
REMARK   43  A    between atoms: _118  and  _120
REMARK   44  A    between atoms: _120  and  _121
REMARK   45  A    between atoms: _120  and  _123
REMARK   46  A    between atoms: _123  and  _124
REMARK   47  A    between atoms: _129  and  _131
REMARK   48  A    between atoms: _131  and  _132
REMARK   49  A    between atoms: _131  and  _134
REMARK   50  A    between atoms: _134  and  _135
REMARK   51  A    between atoms: _138  and  _140
REMARK   52  A    between atoms: _140  and  _141
REMARK   53  A    between atoms: _140  and  _143
REMARK   54  A    between atoms: _143  and  _144
REMARK   55  A    between atoms: _149  and  _150
REMARK   56  A    between atoms: _152  and  _154
REMARK   57  A    between atoms: _154  and  _155
REMARK   58  A    between atoms: _154  and  _157
REMARK   59  A    between atoms: _157  and  _158
REMARK   60  A    between atoms: _163  and  _164
REMARK   61  A    between atoms: _166  and  _168
REMARK   62  A    between atoms: _168  and  _169
REMARK   63  A    between atoms: _168  and  _171
REMARK   64  A    between atoms: _171  and  _172
REMARK   65  A    between atoms: _175  and  _177
REMARK   66  A    between atoms: _177  and  _178
REMARK   67  A    between atoms: _177  and  _180
REMARK   68  A    between atoms: _180  and  _181
REMARK   69  A    between atoms: _181  and  _182
REMARK   70  A    between atoms: _184  and  _186
REMARK   71  A    between atoms: _186  and  _187
REMARK   72  A    between atoms: _186  and  _189
REMARK   73  A    between atoms: _189  and  _190
REMARK   74  A    between atoms: _193  and  _195
REMARK   75  A    between atoms: _195  and  _196
REMARK   76  A    between atoms: _195  and  _198
REMARK   77  A    between atoms: _198  and  _199
REMARK   78  A    between atoms: _199  and  _200
REMARK   79  A    between atoms: _202  and  _204
REMARK   80  A    between atoms: _204  and  _205
REMARK   81  A    between atoms: _204  and  _207
REMARK   82  A    between atoms: _207  and  _208
REMARK   83  A    between atoms: _208  and  _209
REMARK   84  A    between atoms: _211  and  _213
REMARK   85  A    between atoms: _213  and  _214
REMARK   86  A    between atoms: _213  and  _216
REMARK   87  A    between atoms: _216  and  _217
REMARK   88  A    between atoms: _223  and  _225
REMARK   89  A    between atoms: _225  and  _226
REMARK   90  A    between atoms: _225  and  _228
REMARK   91  A    between atoms: _228  and  _229
REMARK   92  A    between atoms: _234  and  _236
REMARK   93  A    between atoms: _236  and  _237
REMARK   94  A    between atoms: _236  and  _239
REMARK   95  A    between atoms: _241  and  _243
REMARK   96  A    between atoms: _243  and  _244
REMARK   97  A    between atoms: _243  and  _246
REMARK   98  A    between atoms: _246  and  _247
REMARK   99  A    between atoms: _252  and  _253
REMARK  100  A    between atoms: _255  and  _257
REMARK  101  A    between atoms: _257  and  _258
REMARK  102  A    between atoms: _257  and  _260
REMARK  103  A    between atoms: _260  and  _261
REMARK  104  A    between atoms: _266  and  _267
REMARK  105  A    between atoms: _269  and  _271
REMARK  106  A    between atoms: _271  and  _272
REMARK  107  A    between atoms: _271  and  _274
REMARK  108  A    between atoms: _274  and  _275
REMARK  109  A    between atoms: _280  and  _282
REMARK  110  A    between atoms: _282  and  _283
REMARK  111  A    between atoms: _282  and  _285
REMARK  112  A    between atoms: _285  and  _286
REMARK  113  A    between atoms: _286  and  _287
REMARK  114  A    between atoms: _287  and  _288
REMARK  115  A    between atoms: _288  and  _289
REMARK  116  A    between atoms: _293  and  _295
REMARK  117  A    between atoms: _295  and  _296
REMARK  118  A    between atoms: _295  and  _298
REMARK  119  A    between atoms: _298  and  _299
REMARK  120  A    between atoms: _302  and  _304
REMARK  121  A    between atoms: _304  and  _305
REMARK  122  A    between atoms: _304  and  _307
REMARK  123  A    between atoms: _307  and  _308
REMARK  124  A    between atoms: _311  and  _313
REMARK  125  A    between atoms: _313  and  _314
REMARK  126  A    between atoms: _313  and  _316
REMARK  127  A    between atoms: _319  and  _321
REMARK  128  A    between atoms: _321  and  _322
REMARK  129  A    between atoms: _321  and  _324
REMARK  130  A    between atoms: _324  and  _325
REMARK  131  A    between atoms: _325  and  _326
REMARK  132  A    between atoms: _328  and  _330
REMARK  133  A    between atoms: _330  and  _331
REMARK                            x       y       z     vdW  Elec       q    Type
REMARK                         _______ _______ _______ _____ _____    ______ ____
ROOT
ATOM      1  O   HOH     1     -14.741  17.147   4.082  0.00  0.00    +0.000 OA
ENDROOT
TORSDOF 0
REMARK  Name = ../refined-set-2016/4xya/4xya_pocket.pdb
REMARK  133 active torsions:
REMARK  status: ('A' for Active; 'I' for Inactive)
REMARK    1  A    between atoms: _1  and  _3
REMARK    2  A    between atoms: _3  and  _4
REMARK    3  A    between atoms: _7  and  _9
REMARK    4  A    between atoms: _9  and  _10
REMARK    5  A    between atoms: _9  and  _12
REMARK    6  A    between atoms: _12  and  _13
REMARK    7  A    between atoms: _24  and  _25
REMARK    8  A    between atoms: _30  and  _32
REMARK    9  A    between atoms: _32  and  _33
REMARK   10  A    between atoms: _32  and  _35
REMARK   11  A    between atoms: _35  and  _36
REMARK   12  A    between atoms: _42  and  _44
REMARK   13  A    between atoms: _44  and  _45
REMARK   14  A    between atoms: _44  and  _47
REMARK   15  A    between atoms: _47  and  _48
REMARK   16  A    between atoms: _48  and  _49
REMARK   17  A    between atoms: _54  and  _56
REMARK   18  A    between atoms: _56  and  _57
REMARK   19  A    between atoms: _56  and  _59
REMARK   20  A    between atoms: _59  and  _60
REMARK   21  A    between atoms: _60  and  _61
REMARK   22  A    between atoms: _67  and  _68
REMARK   23  A    between atoms: _73  and  _75
REMARK   24  A    between atoms: _75  and  _76
REMARK   25  A    between atoms: _75  and  _78
REMARK   26  A    between atoms: _81  and  _83
REMARK   27  A    between atoms: _83  and  _84
REMARK   28  A    between atoms: _83  and  _86
REMARK   29  A    between atoms: _86  and  _87
REMARK   30  A    between atoms: _90  and  _92
REMARK   31  A    between atoms: _92  and  _93
REMARK   32  A    between atoms: _96  and  _98
REMARK   33  A    between atoms: _98  and  _99
REMARK   34  A    between atoms: _98  and  _101
REMARK   35  A    between atoms: _101  and  _102
REMARK   36  A    between atoms: _102  and  _103
REMARK   37  A    between atoms: _103  and  _104
REMARK   38  A    between atoms: _104  and  _105
REMARK   39  A    between atoms: _109  and  _111
REMARK   40  A    between atoms: _111  and  _112
REMARK   41  A    between atoms: _111  and  _114
REMARK   42  A    between atoms: _114  and  _115
REMARK   43  A    between atoms: _118  and  _120
REMARK   44  A    between atoms: _120  and  _121
REMARK   45  A    between atoms: _120  and  _123
REMARK   46  A    between atoms: _123  and  _124
REMARK   47  A    between atoms: _129  and  _131
REMARK   48  A    between atoms: _131  and  _132
REMARK   49  A    between atoms: _131  and  _134
REMARK   50  A    between atoms: _134  and  _135
REMARK   51  A    between atoms: _138  and  _140
REMARK   52  A    between atoms: _140  and  _141
REMARK   53  A    between atoms: _140  and  _143
REMARK   54  A    between atoms: _143  and  _144
REMARK   55  A    between atoms: _149  and  _150
REMARK   56  A    between atoms: _152  and  _154
REMARK   57  A    between atoms: _154  and  _155
REMARK   58  A    between atoms: _154  and  _157
REMARK   59  A    between atoms: _157  and  _158
REMARK   60  A    between atoms: _163  and  _164
REMARK   61  A    between atoms: _166  and  _168
REMARK   62  A    between atoms: _168  and  _169
REMARK   63  A    between atoms: _168  and  _171
REMARK   64  A    between atoms: _171  and  _172
REMARK   65  A    between atoms: _175  and  _177
REMARK   66  A    between atoms: _177  and  _178
REMARK   67  A    between atoms: _177  and  _180
REMARK   68  A    between atoms: _180  and  _181
REMARK   69  A    between atoms: _181  and  _182
REMARK   70  A    between atoms: _184  and  _186
REMARK   71  A    between atoms: _186  and  _187
REMARK   72  A    between atoms: _186  and  _189
REMARK   73  A    between atoms: _189  and  _190
REMARK   74  A    between atoms: _193  and  _195
REMARK   75  A    between atoms: _195  and  _196
REMARK   76  A    between atoms: _195  and  _198
REMARK   77  A    between atoms: _198  and  _199
REMARK   78  A    between atoms: _199  and  _200
REMARK   79  A    between atoms: _202  and  _204
REMARK   80  A    between atoms: _204  and  _205
REMARK   81  A    between atoms: _204  and  _207
REMARK   82  A    between atoms: _207  and  _208
REMARK   83  A    between atoms: _208  and  _209
REMARK   84  A    between atoms: _211  and  _213
REMARK   85  A    between atoms: _213  and  _214
REMARK   86  A    between atoms: _213  and  _216
REMARK   87  A    between atoms: _216  and  _217
REMARK   88  A    between atoms: _223  and  _225
REMARK   89  A    between atoms: _225  and  _226
REMARK   90  A    between atoms: _225  and  _228
REMARK   91  A    between atoms: _228  and  _229
REMARK   92  A    between atoms: _234  and  _236
REMARK   93  A    between atoms: _236  and  _237
REMARK   94  A    between atoms: _236  and  _239
REMARK   95  A    between atoms: _241  and  _243
REMARK   96  A    between atoms: _243  and  _244
REMARK   97  A    between atoms: _243  and  _246
REMARK   98  A    between atoms: _246  and  _247
REMARK   99  A    between atoms: _252  and  _253
REMARK  100  A    between atoms: _255  and  _257
REMARK  101  A    between atoms: _257  and  _258
REMARK  102  A    between atoms: _257  and  _260
REMARK  103  A    between atoms: _260  and  _261
REMARK  104  A    between atoms: _266  and  _267
REMARK  105  A    between atoms: _269  and  _271
REMARK  106  A    between atoms: _271  and  _272
REMARK  107  A    between atoms: _271  and  _274
REMARK  108  A    between atoms: _274  and  _275
REMARK  109  A    between atoms: _280  and  _282
REMARK  110  A    between atoms: _282  and  _283
REMARK  111  A    between atoms: _282  and  _285
REMARK  112  A    between atoms: _285  and  _286
REMARK  113  A    between atoms: _286  and  _287
REMARK  114  A    between atoms: _287  and  _288
REMARK  115  A    between atoms: _288  and  _289
REMARK  116  A    between atoms: _293  and  _295
REMARK  117  A    between atoms: _295  and  _296
REMARK  118  A    between atoms: _295  and  _298
REMARK  119  A    between atoms: _298  and  _299
REMARK  120  A    between atoms: _302  and  _304
REMARK  121  A    between atoms: _304  and  _305
REMARK  122  A    between atoms: _304  and  _307
REMARK  123  A    between atoms: _307  and  _308
REMARK  124  A    between atoms: _311  and  _313
REMARK  125  A    between atoms: _313  and  _314
REMARK  126  A    between atoms: _313  and  _316
REMARK  127  A    between atoms: _319  and  _321
REMARK  128  A    between atoms: _321  and  _322
REMARK  129  A    between atoms: _321  and  _324
REMARK  130  A    between atoms: _324  and  _325
REMARK  131  A    between atoms: _325  and  _326
REMARK  132  A    between atoms: _328  and  _330
REMARK  133  A    between atoms: _330  and  _331
REMARK                            x       y       z     vdW  Elec       q    Type
REMARK                         _______ _______ _______ _____ _____    ______ ____
ROOT
ATOM      1  O   HOH     1      -2.438  19.114   2.546  0.00  0.00    +0.000 OA
ENDROOT
TORSDOF 0
REMARK  Name = ../refined-set-2016/4xya/4xya_pocket.pdb
REMARK  133 active torsions:
REMARK  status: ('A' for Active; 'I' for Inactive)
REMARK    1  A    between atoms: _1  and  _3
REMARK    2  A    between atoms: _3  and  _4
REMARK    3  A    between atoms: _7  and  _9
REMARK    4  A    between atoms: _9  and  _10
REMARK    5  A    between atoms: _9  and  _12
REMARK    6  A    between atoms: _12  and  _13
REMARK    7  A    between atoms: _24  and  _25
REMARK    8  A    between atoms: _30  and  _32
REMARK    9  A    between atoms: _32  and  _33
REMARK   10  A    between atoms: _32  and  _35
REMARK   11  A    between atoms: _35  and  _36
REMARK   12  A    between atoms: _42  and  _44
REMARK   13  A    between atoms: _44  and  _45
REMARK   14  A    between atoms: _44  and  _47
REMARK   15  A    between atoms: _47  and  _48
REMARK   16  A    between atoms: _48  and  _49
REMARK   17  A    between atoms: _54  and  _56
REMARK   18  A    between atoms: _56  and  _57
REMARK   19  A    between atoms: _56  and  _59
REMARK   20  A    between atoms: _59  and  _60
REMARK   21  A    between atoms: _60  and  _61
REMARK   22  A    between atoms: _67  and  _68
REMARK   23  A    between atoms: _73  and  _75
REMARK   24  A    between atoms: _75  and  _76
REMARK   25  A    between atoms: _75  and  _78
REMARK   26  A    between atoms: _81  and  _83
REMARK   27  A    between atoms: _83  and  _84
REMARK   28  A    between atoms: _83  and  _86
REMARK   29  A    between atoms: _86  and  _87
REMARK   30  A    between atoms: _90  and  _92
REMARK   31  A    between atoms: _92  and  _93
REMARK   32  A    between atoms: _96  and  _98
REMARK   33  A    between atoms: _98  and  _99
REMARK   34  A    between atoms: _98  and  _101
REMARK   35  A    between atoms: _101  and  _102
REMARK   36  A    between atoms: _102  and  _103
REMARK   37  A    between atoms: _103  and  _104
REMARK   38  A    between atoms: _104  and  _105
REMARK   39  A    between atoms: _109  and  _111
REMARK   40  A    between atoms: _111  and  _112
REMARK   41  A    between atoms: _111  and  _114
REMARK   42  A    between atoms: _114  and  _115
REMARK   43  A    between atoms: _118  and  _120
REMARK   44  A    between atoms: _120  and  _121
REMARK   45  A    between atoms: _120  and  _123
REMARK   46  A    between atoms: _123  and  _124
REMARK   47  A    between atoms: _129  and  _131
REMARK   48  A    between atoms: _131  and  _132
REMARK   49  A    between atoms: _131  and  _134
REMARK   50  A    between atoms: _134  and  _135
REMARK   51  A    between atoms: _138  and  _140
REMARK   52  A    between atoms: _140  and  _141
REMARK   53  A    between atoms: _140  and  _143
REMARK   54  A    between atoms: _143  and  _144
REMARK   55  A    between atoms: _149  and  _150
REMARK   56  A    between atoms: _152  and  _154
REMARK   57  A    between atoms: _154  and  _155
REMARK   58  A    between atoms: _154  and  _157
REMARK   59  A    between atoms: _157  and  _158
REMARK   60  A    between atoms: _163  and  _164
REMARK   61  A    between atoms: _166  and  _168
REMARK   62  A    between atoms: _168  and  _169
REMARK   63  A    between atoms: _168  and  _171
REMARK   64  A    between atoms: _171  and  _172
REMARK   65  A    between atoms: _175  and  _177
REMARK   66  A    between atoms: _177  and  _178
REMARK   67  A    between atoms: _177  and  _180
REMARK   68  A    between atoms: _180  and  _181
REMARK   69  A    between atoms: _181  and  _182
REMARK   70  A    between atoms: _184  and  _186
REMARK   71  A    between atoms: _186  and  _187
REMARK   72  A    between atoms: _186  and  _189
REMARK   73  A    between atoms: _189  and  _190
REMARK   74  A    between atoms: _193  and  _195
REMARK   75  A    between atoms: _195  and  _196
REMARK   76  A    between atoms: _195  and  _198
REMARK   77  A    between atoms: _198  and  _199
REMARK   78  A    between atoms: _199  and  _200
REMARK   79  A    between atoms: _202  and  _204
REMARK   80  A    between atoms: _204  and  _205
REMARK   81  A    between atoms: _204  and  _207
REMARK   82  A    between atoms: _207  and  _208
REMARK   83  A    between atoms: _208  and  _209
REMARK   84  A    between atoms: _211  and  _213
REMARK   85  A    between atoms: _213  and  _214
REMARK   86  A    between atoms: _213  and  _216
REMARK   87  A    between atoms: _216  and  _217
REMARK   88  A    between atoms: _223  and  _225
REMARK   89  A    between atoms: _225  and  _226
REMARK   90  A    between atoms: _225  and  _228
REMARK   91  A    between atoms: _228  and  _229
REMARK   92  A    between atoms: _234  and  _236
REMARK   93  A    between atoms: _236  and  _237
REMARK   94  A    between atoms: _236  and  _239
REMARK   95  A    between atoms: _241  and  _243
REMARK   96  A    between atoms: _243  and  _244
REMARK   97  A    between atoms: _243  and  _246
REMARK   98  A    between atoms: _246  and  _247
REMARK   99  A    between atoms: _252  and  _253
REMARK  100  A    between atoms: _255  and  _257
REMARK  101  A    between atoms: _257  and  _258
REMARK  102  A    between atoms: _257  and  _260
REMARK  103  A    between atoms: _260  and  _261
REMARK  104  A    between atoms: _266  and  _267
REMARK  105  A    between atoms: _269  and  _271
REMARK  106  A    between atoms: _271  and  _272
REMARK  107  A    between atoms: _271  and  _274
REMARK  108  A    between atoms: _274  and  _275
REMARK  109  A    between atoms: _280  and  _282
REMARK  110  A    between atoms: _282  and  _283
REMARK  111  A    between atoms: _282  and  _285
REMARK  112  A    between atoms: _285  and  _286
REMARK  113  A    between atoms: _286  and  _287
REMARK  114  A    between atoms: _287  and  _288
REMARK  115  A    between atoms: _288  and  _289
REMARK  116  A    between atoms: _293  and  _295
REMARK  117  A    between atoms: _295  and  _296
REMARK  118  A    between atoms: _295  and  _298
REMARK  119  A    between atoms: _298  and  _299
REMARK  120  A    between atoms: _302  and  _304
REMARK  121  A    between atoms: _304  and  _305
REMARK  122  A    between atoms: _304  and  _307
REMARK  123  A    between atoms: _307  and  _308
REMARK  124  A    between atoms: _311  and  _313
REMARK  125  A    between atoms: _313  and  _314
REMARK  126  A    between atoms: _313  and  _316
REMARK  127  A    between atoms: _319  and  _321
REMARK  128  A    between atoms: _321  and  _322
REMARK  129  A    between atoms: _321  and  _324
REMARK  130  A    between atoms: _324  and  _325
REMARK  131  A    between atoms: _325  and  _326
REMARK  132  A    between atoms: _328  and  _330
REMARK  133  A    between atoms: _330  and  _331
REMARK                            x       y       z     vdW  Elec       q    Type
REMARK                         _______ _______ _______ _____ _____    ______ ____
ROOT
ATOM      1  O   HOH     1      -4.811  17.237   7.600  0.00  0.00    +0.000 OA
ENDROOT
TORSDOF 0
REMARK  Name = ../refined-set-2016/4xya/4xya_pocket.pdb
REMARK  133 active torsions:
REMARK  status: ('A' for Active; 'I' for Inactive)
REMARK    1  A    between atoms: _1  and  _3
REMARK    2  A    between atoms: _3  and  _4
REMARK    3  A    between atoms: _7  and  _9
REMARK    4  A    between atoms: _9  and  _10
REMARK    5  A    between atoms: _9  and  _12
REMARK    6  A    between atoms: _12  and  _13
REMARK    7  A    between atoms: _24  and  _25
REMARK    8  A    between atoms: _30  and  _32
REMARK    9  A    between atoms: _32  and  _33
REMARK   10  A    between atoms: _32  and  _35
REMARK   11  A    between atoms: _35  and  _36
REMARK   12  A    between atoms: _42  and  _44
REMARK   13  A    between atoms: _44  and  _45
REMARK   14  A    between atoms: _44  and  _47
REMARK   15  A    between atoms: _47  and  _48
REMARK   16  A    between atoms: _48  and  _49
REMARK   17  A    between atoms: _54  and  _56
REMARK   18  A    between atoms: _56  and  _57
REMARK   19  A    between atoms: _56  and  _59
REMARK   20  A    between atoms: _59  and  _60
REMARK   21  A    between atoms: _60  and  _61
REMARK   22  A    between atoms: _67  and  _68
REMARK   23  A    between atoms: _73  and  _75
REMARK   24  A    between atoms: _75  and  _76
REMARK   25  A    between atoms: _75  and  _78
REMARK   26  A    between atoms: _81  and  _83
REMARK   27  A    between atoms: _83  and  _84
REMARK   28  A    between atoms: _83  and  _86
REMARK   29  A    between atoms: _86  and  _87
REMARK   30  A    between atoms: _90  and  _92
REMARK   31  A    between atoms: _92  and  _93
REMARK   32  A    between atoms: _96  and  _98
REMARK   33  A    between atoms: _98  and  _99
REMARK   34  A    between atoms: _98  and  _101
REMARK   35  A    between atoms: _101  and  _102
REMARK   36  A    between atoms: _102  and  _103
REMARK   37  A    between atoms: _103  and  _104
REMARK   38  A    between atoms: _104  and  _105
REMARK   39  A    between atoms: _109  and  _111
REMARK   40  A    between atoms: _111  and  _112
REMARK   41  A    between atoms: _111  and  _114
REMARK   42  A    between atoms: _114  and  _115
REMARK   43  A    between atoms: _118  and  _120
REMARK   44  A    between atoms: _120  and  _121
REMARK   45  A    between atoms: _120  and  _123
REMARK   46  A    between atoms: _123  and  _124
REMARK   47  A    between atoms: _129  and  _131
REMARK   48  A    between atoms: _131  and  _132
REMARK   49  A    between atoms: _131  and  _134
REMARK   50  A    between atoms: _134  and  _135
REMARK   51  A    between atoms: _138  and  _140
REMARK   52  A    between atoms: _140  and  _141
REMARK   53  A    between atoms: _140  and  _143
REMARK   54  A    between atoms: _143  and  _144
REMARK   55  A    between atoms: _149  and  _150
REMARK   56  A    between atoms: _152  and  _154
REMARK   57  A    between atoms: _154  and  _155
REMARK   58  A    between atoms: _154  and  _157
REMARK   59  A    between atoms: _157  and  _158
REMARK   60  A    between atoms: _163  and  _164
REMARK   61  A    between atoms: _166  and  _168
REMARK   62  A    between atoms: _168  and  _169
REMARK   63  A    between atoms: _168  and  _171
REMARK   64  A    between atoms: _171  and  _172
REMARK   65  A    between atoms: _175  and  _177
REMARK   66  A    between atoms: _177  and  _178
REMARK   67  A    between atoms: _177  and  _180
REMARK   68  A    between atoms: _180  and  _181
REMARK   69  A    between atoms: _181  and  _182
REMARK   70  A    between atoms: _184  and  _186
REMARK   71  A    between atoms: _186  and  _187
REMARK   72  A    between atoms: _186  and  _189
REMARK   73  A    between atoms: _189  and  _190
REMARK   74  A    between atoms: _193  and  _195
REMARK   75  A    between atoms: _195  and  _196
REMARK   76  A    between atoms: _195  and  _198
REMARK   77  A    between atoms: _198  and  _199
REMARK   78  A    between atoms: _199  and  _200
REMARK   79  A    between atoms: _202  and  _204
REMARK   80  A    between atoms: _204  and  _205
REMARK   81  A    between atoms: _204  and  _207
REMARK   82  A    between atoms: _207  and  _208
REMARK   83  A    between atoms: _208  and  _209
REMARK   84  A    between atoms: _211  and  _213
REMARK   85  A    between atoms: _213  and  _214
REMARK   86  A    between atoms: _213  and  _216
REMARK   87  A    between atoms: _216  and  _217
REMARK   88  A    between atoms: _223  and  _225
REMARK   89  A    between atoms: _225  and  _226
REMARK   90  A    between atoms: _225  and  _228
REMARK   91  A    between atoms: _228  and  _229
REMARK   92  A    between atoms: _234  and  _236
REMARK   93  A    between atoms: _236  and  _237
REMARK   94  A    between atoms: _236  and  _239
REMARK   95  A    between atoms: _241  and  _243
REMARK   96  A    between atoms: _243  and  _244
REMARK   97  A    between atoms: _243  and  _246
REMARK   98  A    between atoms: _246  and  _247
REMARK   99  A    between atoms: _252  and  _253
REMARK  100  A    between atoms: _255  and  _257
REMARK  101  A    between atoms: _257  and  _258
REMARK  102  A    between atoms: _257  and  _260
REMARK  103  A    between atoms: _260  and  _261
REMARK  104  A    between atoms: _266  and  _267
REMARK  105  A    between atoms: _269  and  _271
REMARK  106  A    between atoms: _271  and  _272
REMARK  107  A    between atoms: _271  and  _274
REMARK  108  A    between atoms: _274  and  _275
REMARK  109  A    between atoms: _280  and  _282
REMARK  110  A    between atoms: _282  and  _283
REMARK  111  A    between atoms: _282  and  _285
REMARK  112  A    between atoms: _285  and  _286
REMARK  113  A    between atoms: _286  and  _287
REMARK  114  A    between atoms: _287  and  _288
REMARK  115  A    between atoms: _288  and  _289
REMARK  116  A    between atoms: _293  and  _295
REMARK  117  A    between atoms: _295  and  _296
REMARK  118  A    between atoms: _295  and  _298
REMARK  119  A    between atoms: _298  and  _299
REMARK  120  A    between atoms: _302  and  _304
REMARK  121  A    between atoms: _304  and  _305
REMARK  122  A    between atoms: _304  and  _307
REMARK  123  A    between atoms: _307  and  _308
REMARK  124  A    between atoms: _311  and  _313
REMARK  125  A    between atoms: _313  and  _314
REMARK  126  A    between atoms: _313  and  _316
REMARK  127  A    between atoms: _319  and  _321
REMARK  128  A    between atoms: _321  and  _322
REMARK  129  A    between atoms: _321  and  _324
REMARK  130  A    between atoms: _324  and  _325
REMARK  131  A    between atoms: _325  and  _326
REMARK  132  A    between atoms: _328  and  _330
REMARK  133  A    between atoms: _330  and  _331
REMARK                            x       y       z     vdW  Elec       q    Type
REMARK                         _______ _______ _______ _____ _____    ______ ____
ROOT
ATOM      1  O   HOH     1      -6.713  13.163  -2.847  0.00  0.00    +0.000 OA
ENDROOT
TORSDOF 0
REMARK  Name = ../refined-set-2016/4xya/4xya_pocket.pdb
REMARK  133 active torsions:
REMARK  status: ('A' for Active; 'I' for Inactive)
REMARK    1  A    between atoms: _1  and  _3
REMARK    2  A    between atoms: _3  and  _4
REMARK    3  A    between atoms: _7  and  _9
REMARK    4  A    between atoms: _9  and  _10
REMARK    5  A    between atoms: _9  and  _12
REMARK    6  A    between atoms: _12  and  _13
REMARK    7  A    between atoms: _24  and  _25
REMARK    8  A    between atoms: _30  and  _32
REMARK    9  A    between atoms: _32  and  _33
REMARK   10  A    between atoms: _32  and  _35
REMARK   11  A    between atoms: _35  and  _36
REMARK   12  A    between atoms: _42  and  _44
REMARK   13  A    between atoms: _44  and  _45
REMARK   14  A    between atoms: _44  and  _47
REMARK   15  A    between atoms: _47  and  _48
REMARK   16  A    between atoms: _48  and  _49
REMARK   17  A    between atoms: _54  and  _56
REMARK   18  A    between atoms: _56  and  _57
REMARK   19  A    between atoms: _56  and  _59
REMARK   20  A    between atoms: _59  and  _60
REMARK   21  A    between atoms: _60  and  _61
REMARK   22  A    between atoms: _67  and  _68
REMARK   23  A    between atoms: _73  and  _75
REMARK   24  A    between atoms: _75  and  _76
REMARK   25  A    between atoms: _75  and  _78
REMARK   26  A    between atoms: _81  and  _83
REMARK   27  A    between atoms: _83  and  _84
REMARK   28  A    between atoms: _83  and  _86
REMARK   29  A    between atoms: _86  and  _87
REMARK   30  A    between atoms: _90  and  _92
REMARK   31  A    between atoms: _92  and  _93
REMARK   32  A    between atoms: _96  and  _98
REMARK   33  A    between atoms: _98  and  _99
REMARK   34  A    between atoms: _98  and  _101
REMARK   35  A    between atoms: _101  and  _102
REMARK   36  A    between atoms: _102  and  _103
REMARK   37  A    between atoms: _103  and  _104
REMARK   38  A    between atoms: _104  and  _105
REMARK   39  A    between atoms: _109  and  _111
REMARK   40  A    between atoms: _111  and  _112
REMARK   41  A    between atoms: _111  and  _114
REMARK   42  A    between atoms: _114  and  _115
REMARK   43  A    between atoms: _118  and  _120
REMARK   44  A    between atoms: _120  and  _121
REMARK   45  A    between atoms: _120  and  _123
REMARK   46  A    between atoms: _123  and  _124
REMARK   47  A    between atoms: _129  and  _131
REMARK   48  A    between atoms: _131  and  _132
REMARK   49  A    between atoms: _131  and  _134
REMARK   50  A    between atoms: _134  and  _135
REMARK   51  A    between atoms: _138  and  _140
REMARK   52  A    between atoms: _140  and  _141
REMARK   53  A    between atoms: _140  and  _143
REMARK   54  A    between atoms: _143  and  _144
REMARK   55  A    between atoms: _149  and  _150
REMARK   56  A    between atoms: _152  and  _154
REMARK   57  A    between atoms: _154  and  _155
REMARK   58  A    between atoms: _154  and  _157
REMARK   59  A    between atoms: _157  and  _158
REMARK   60  A    between atoms: _163  and  _164
REMARK   61  A    between atoms: _166  and  _168
REMARK   62  A    between atoms: _168  and  _169
REMARK   63  A    between atoms: _168  and  _171
REMARK   64  A    between atoms: _171  and  _172
REMARK   65  A    between atoms: _175  and  _177
REMARK   66  A    between atoms: _177  and  _178
REMARK   67  A    between atoms: _177  and  _180
REMARK   68  A    between atoms: _180  and  _181
REMARK   69  A    between atoms: _181  and  _182
REMARK   70  A    between atoms: _184  and  _186
REMARK   71  A    between atoms: _186  and  _187
REMARK   72  A    between atoms: _186  and  _189
REMARK   73  A    between atoms: _189  and  _190
REMARK   74  A    between atoms: _193  and  _195
REMARK   75  A    between atoms: _195  and  _196
REMARK   76  A    between atoms: _195  and  _198
REMARK   77  A    between atoms: _198  and  _199
REMARK   78  A    between atoms: _199  and  _200
REMARK   79  A    between atoms: _202  and  _204
REMARK   80  A    between atoms: _204  and  _205
REMARK   81  A    between atoms: _204  and  _207
REMARK   82  A    between atoms: _207  and  _208
REMARK   83  A    between atoms: _208  and  _209
REMARK   84  A    between atoms: _211  and  _213
REMARK   85  A    between atoms: _213  and  _214
REMARK   86  A    between atoms: _213  and  _216
REMARK   87  A    between atoms: _216  and  _217
REMARK   88  A    between atoms: _223  and  _225
REMARK   89  A    between atoms: _225  and  _226
REMARK   90  A    between atoms: _225  and  _228
REMARK   91  A    between atoms: _228  and  _229
REMARK   92  A    between atoms: _234  and  _236
REMARK   93  A    between atoms: _236  and  _237
REMARK   94  A    between atoms: _236  and  _239
REMARK   95  A    between atoms: _241  and  _243
REMARK   96  A    between atoms: _243  and  _244
REMARK   97  A    between atoms: _243  and  _246
REMARK   98  A    between atoms: _246  and  _247
REMARK   99  A    between atoms: _252  and  _253
REMARK  100  A    between atoms: _255  and  _257
REMARK  101  A    between atoms: _257  and  _258
REMARK  102  A    between atoms: _257  and  _260
REMARK  103  A    between atoms: _260  and  _261
REMARK  104  A    between atoms: _266  and  _267
REMARK  105  A    between atoms: _269  and  _271
REMARK  106  A    between atoms: _271  and  _272
REMARK  107  A    between atoms: _271  and  _274
REMARK  108  A    between atoms: _274  and  _275
REMARK  109  A    between atoms: _280  and  _282
REMARK  110  A    between atoms: _282  and  _283
REMARK  111  A    between atoms: _282  and  _285
REMARK  112  A    between atoms: _285  and  _286
REMARK  113  A    between atoms: _286  and  _287
REMARK  114  A    between atoms: _287  and  _288
REMARK  115  A    between atoms: _288  and  _289
REMARK  116  A    between atoms: _293  and  _295
REMARK  117  A    between atoms: _295  and  _296
REMARK  118  A    between atoms: _295  and  _298
REMARK  119  A    between atoms: _298  and  _299
REMARK  120  A    between atoms: _302  and  _304
REMARK  121  A    between atoms: _304  and  _305
REMARK  122  A    between atoms: _304  and  _307
REMARK  123  A    between atoms: _307  and  _308
REMARK  124  A    between atoms: _311  and  _313
REMARK  125  A    between atoms: _313  and  _314
REMARK  126  A    between atoms: _313  and  _316
REMARK  127  A    between atoms: _319  and  _321
REMARK  128  A    between atoms: _321  and  _322
REMARK  129  A    between atoms: _321  and  _324
REMARK  130  A    between atoms: _324  and  _325
REMARK  131  A    between atoms: _325  and  _326
REMARK  132  A    between atoms: _328  and  _330
REMARK  133  A    between atoms: _330  and  _331
REMARK                            x       y       z     vdW  Elec       q    Type
REMARK                         _______ _______ _______ _____ _____    ______ ____
ROOT
ATOM      1  O   HOH     1     -10.033  12.775   4.866  0.00  0.00    +0.000 OA
ENDROOT
TORSDOF 0
REMARK  Name = ../refined-set-2016/4xya/4xya_pocket.pdb
REMARK  133 active torsions:
REMARK  status: ('A' for Active; 'I' for Inactive)
REMARK    1  A    between atoms: _1  and  _3
REMARK    2  A    between atoms: _3  and  _4
REMARK    3  A    between atoms: _7  and  _9
REMARK    4  A    between atoms: _9  and  _10
REMARK    5  A    between atoms: _9  and  _12
REMARK    6  A    between atoms: _12  and  _13
REMARK    7  A    between atoms: _24  and  _25
REMARK    8  A    between atoms: _30  and  _32
REMARK    9  A    between atoms: _32  and  _33
REMARK   10  A    between atoms: _32  and  _35
REMARK   11  A    between atoms: _35  and  _36
REMARK   12  A    between atoms: _42  and  _44
REMARK   13  A    between atoms: _44  and  _45
REMARK   14  A    between atoms: _44  and  _47
REMARK   15  A    between atoms: _47  and  _48
REMARK   16  A    between atoms: _48  and  _49
REMARK   17  A    between atoms: _54  and  _56
REMARK   18  A    between atoms: _56  and  _57
REMARK   19  A    between atoms: _56  and  _59
REMARK   20  A    between atoms: _59  and  _60
REMARK   21  A    between atoms: _60  and  _61
REMARK   22  A    between atoms: _67  and  _68
REMARK   23  A    between atoms: _73  and  _75
REMARK   24  A    between atoms: _75  and  _76
REMARK   25  A    between atoms: _75  and  _78
REMARK   26  A    between atoms: _81  and  _83
REMARK   27  A    between atoms: _83  and  _84
REMARK   28  A    between atoms: _83  and  _86
REMARK   29  A    between atoms: _86  and  _87
REMARK   30  A    between atoms: _90  and  _92
REMARK   31  A    between atoms: _92  and  _93
REMARK   32  A    between atoms: _96  and  _98
REMARK   33  A    between atoms: _98  and  _99
REMARK   34  A    between atoms: _98  and  _101
REMARK   35  A    between atoms: _101  and  _102
REMARK   36  A    between atoms: _102  and  _103
REMARK   37  A    between atoms: _103  and  _104
REMARK   38  A    between atoms: _104  and  _105
REMARK   39  A    between atoms: _109  and  _111
REMARK   40  A    between atoms: _111  and  _112
REMARK   41  A    between atoms: _111  and  _114
REMARK   42  A    between atoms: _114  and  _115
REMARK   43  A    between atoms: _118  and  _120
REMARK   44  A    between atoms: _120  and  _121
REMARK   45  A    between atoms: _120  and  _123
REMARK   46  A    between atoms: _123  and  _124
REMARK   47  A    between atoms: _129  and  _131
REMARK   48  A    between atoms: _131  and  _132
REMARK   49  A    between atoms: _131  and  _134
REMARK   50  A    between atoms: _134  and  _135
REMARK   51  A    between atoms: _138  and  _140
REMARK   52  A    between atoms: _140  and  _141
REMARK   53  A    between atoms: _140  and  _143
REMARK   54  A    between atoms: _143  and  _144
REMARK   55  A    between atoms: _149  and  _150
REMARK   56  A    between atoms: _152  and  _154
REMARK   57  A    between atoms: _154  and  _155
REMARK   58  A    between atoms: _154  and  _157
REMARK   59  A    between atoms: _157  and  _158
REMARK   60  A    between atoms: _163  and  _164
REMARK   61  A    between atoms: _166  and  _168
REMARK   62  A    between atoms: _168  and  _169
REMARK   63  A    between atoms: _168  and  _171
REMARK   64  A    between atoms: _171  and  _172
REMARK   65  A    between atoms: _175  and  _177
REMARK   66  A    between atoms: _177  and  _178
REMARK   67  A    between atoms: _177  and  _180
REMARK   68  A    between atoms: _180  and  _181
REMARK   69  A    between atoms: _181  and  _182
REMARK   70  A    between atoms: _184  and  _186
REMARK   71  A    between atoms: _186  and  _187
REMARK   72  A    between atoms: _186  and  _189
REMARK   73  A    between atoms: _189  and  _190
REMARK   74  A    between atoms: _193  and  _195
REMARK   75  A    between atoms: _195  and  _196
REMARK   76  A    between atoms: _195  and  _198
REMARK   77  A    between atoms: _198  and  _199
REMARK   78  A    between atoms: _199  and  _200
REMARK   79  A    between atoms: _202  and  _204
REMARK   80  A    between atoms: _204  and  _205
REMARK   81  A    between atoms: _204  and  _207
REMARK   82  A    between atoms: _207  and  _208
REMARK   83  A    between atoms: _208  and  _209
REMARK   84  A    between atoms: _211  and  _213
REMARK   85  A    between atoms: _213  and  _214
REMARK   86  A    between atoms: _213  and  _216
REMARK   87  A    between atoms: _216  and  _217
REMARK   88  A    between atoms: _223  and  _225
REMARK   89  A    between atoms: _225  and  _226
REMARK   90  A    between atoms: _225  and  _228
REMARK   91  A    between atoms: _228  and  _229
REMARK   92  A    between atoms: _234  and  _236
REMARK   93  A    between atoms: _236  and  _237
REMARK   94  A    between atoms: _236  and  _239
REMARK   95  A    between atoms: _241  and  _243
REMARK   96  A    between atoms: _243  and  _244
REMARK   97  A    between atoms: _243  and  _246
REMARK   98  A    between atoms: _246  and  _247
REMARK   99  A    between atoms: _252  and  _253
REMARK  100  A    between atoms: _255  and  _257
REMARK  101  A    between atoms: _257  and  _258
REMARK  102  A    between atoms: _257  and  _260
REMARK  103  A    between atoms: _260  and  _261
REMARK  104  A    between atoms: _266  and  _267
REMARK  105  A    between atoms: _269  and  _271
REMARK  106  A    between atoms: _271  and  _272
REMARK  107  A    between atoms: _271  and  _274
REMARK  108  A    between atoms: _274  and  _275
REMARK  109  A    between atoms: _280  and  _282
REMARK  110  A    between atoms: _282  and  _283
REMARK  111  A    between atoms: _282  and  _285
REMARK  112  A    between atoms: _285  and  _286
REMARK  113  A    between atoms: _286  and  _287
REMARK  114  A    between atoms: _287  and  _288
REMARK  115  A    between atoms: _288  and  _289
REMARK  116  A    between atoms: _293  and  _295
REMARK  117  A    between atoms: _295  and  _296
REMARK  118  A    between atoms: _295  and  _298
REMARK  119  A    between atoms: _298  and  _299
REMARK  120  A    between atoms: _302  and  _304
REMARK  121  A    between atoms: _304  and  _305
REMARK  122  A    between atoms: _304  and  _307
REMARK  123  A    between atoms: _307  and  _308
REMARK  124  A    between atoms: _311  and  _313
REMARK  125  A    between atoms: _313  and  _314
REMARK  126  A    between atoms: _313  and  _316
REMARK  127  A    between atoms: _319  and  _321
REMARK  128  A    between atoms: _321  and  _322
REMARK  129  A    between atoms: _321  and  _324
REMARK  130  A    between atoms: _324  and  _325
REMARK  131  A    between atoms: _325  and  _326
REMARK  132  A    between atoms: _328  and  _330
REMARK  133  A    between atoms: _330  and  _331
REMARK                            x       y       z     vdW  Elec       q    Type
REMARK                         _______ _______ _______ _____ _____    ______ ____
ROOT
ATOM      1  O   HOH     1     -12.381   9.038   6.554  0.00  0.00    +0.000 OA
ENDROOT
TORSDOF 0
REMARK  Name = ../refined-set-2016/4xya/4xya_pocket.pdb
REMARK  133 active torsions:
REMARK  status: ('A' for Active; 'I' for Inactive)
REMARK    1  A    between atoms: _1  and  _3
REMARK    2  A    between atoms: _3  and  _4
REMARK    3  A    between atoms: _7  and  _9
REMARK    4  A    between atoms: _9  and  _10
REMARK    5  A    between atoms: _9  and  _12
REMARK    6  A    between atoms: _12  and  _13
REMARK    7  A    between atoms: _24  and  _25
REMARK    8  A    between atoms: _30  and  _32
REMARK    9  A    between atoms: _32  and  _33
REMARK   10  A    between atoms: _32  and  _35
REMARK   11  A    between atoms: _35  and  _36
REMARK   12  A    between atoms: _42  and  _44
REMARK   13  A    between atoms: _44  and  _45
REMARK   14  A    between atoms: _44  and  _47
REMARK   15  A    between atoms: _47  and  _48
REMARK   16  A    between atoms: _48  and  _49
REMARK   17  A    between atoms: _54  and  _56
REMARK   18  A    between atoms: _56  and  _57
REMARK   19  A    between atoms: _56  and  _59
REMARK   20  A    between atoms: _59  and  _60
REMARK   21  A    between atoms: _60  and  _61
REMARK   22  A    between atoms: _67  and  _68
REMARK   23  A    between atoms: _73  and  _75
REMARK   24  A    between atoms: _75  and  _76
REMARK   25  A    between atoms: _75  and  _78
REMARK   26  A    between atoms: _81  and  _83
REMARK   27  A    between atoms: _83  and  _84
REMARK   28  A    between atoms: _83  and  _86
REMARK   29  A    between atoms: _86  and  _87
REMARK   30  A    between atoms: _90  and  _92
REMARK   31  A    between atoms: _92  and  _93
REMARK   32  A    between atoms: _96  and  _98
REMARK   33  A    between atoms: _98  and  _99
REMARK   34  A    between atoms: _98  and  _101
REMARK   35  A    between atoms: _101  and  _102
REMARK   36  A    between atoms: _102  and  _103
REMARK   37  A    between atoms: _103  and  _104
REMARK   38  A    between atoms: _104  and  _105
REMARK   39  A    between atoms: _109  and  _111
REMARK   40  A    between atoms: _111  and  _112
REMARK   41  A    between atoms: _111  and  _114
REMARK   42  A    between atoms: _114  and  _115
REMARK   43  A    between atoms: _118  and  _120
REMARK   44  A    between atoms: _120  and  _121
REMARK   45  A    between atoms: _120  and  _123
REMARK   46  A    between atoms: _123  and  _124
REMARK   47  A    between atoms: _129  and  _131
REMARK   48  A    between atoms: _131  and  _132
REMARK   49  A    between atoms: _131  and  _134
REMARK   50  A    between atoms: _134  and  _135
REMARK   51  A    between atoms: _138  and  _140
REMARK   52  A    between atoms: _140  and  _141
REMARK   53  A    between atoms: _140  and  _143
REMARK   54  A    between atoms: _143  and  _144
REMARK   55  A    between atoms: _149  and  _150
REMARK   56  A    between atoms: _152  and  _154
REMARK   57  A    between atoms: _154  and  _155
REMARK   58  A    between atoms: _154  and  _157
REMARK   59  A    between atoms: _157  and  _158
REMARK   60  A    between atoms: _163  and  _164
REMARK   61  A    between atoms: _166  and  _168
REMARK   62  A    between atoms: _168  and  _169
REMARK   63  A    between atoms: _168  and  _171
REMARK   64  A    between atoms: _171  and  _172
REMARK   65  A    between atoms: _175  and  _177
REMARK   66  A    between atoms: _177  and  _178
REMARK   67  A    between atoms: _177  and  _180
REMARK   68  A    between atoms: _180  and  _181
REMARK   69  A    between atoms: _181  and  _182
REMARK   70  A    between atoms: _184  and  _186
REMARK   71  A    between atoms: _186  and  _187
REMARK   72  A    between atoms: _186  and  _189
REMARK   73  A    between atoms: _189  and  _190
REMARK   74  A    between atoms: _193  and  _195
REMARK   75  A    between atoms: _195  and  _196
REMARK   76  A    between atoms: _195  and  _198
REMARK   77  A    between atoms: _198  and  _199
REMARK   78  A    between atoms: _199  and  _200
REMARK   79  A    between atoms: _202  and  _204
REMARK   80  A    between atoms: _204  and  _205
REMARK   81  A    between atoms: _204  and  _207
REMARK   82  A    between atoms: _207  and  _208
REMARK   83  A    between atoms: _208  and  _209
REMARK   84  A    between atoms: _211  and  _213
REMARK   85  A    between atoms: _213  and  _214
REMARK   86  A    between atoms: _213  and  _216
REMARK   87  A    between atoms: _216  and  _217
REMARK   88  A    between atoms: _223  and  _225
REMARK   89  A    between atoms: _225  and  _226
REMARK   90  A    between atoms: _225  and  _228
REMARK   91  A    between atoms: _228  and  _229
REMARK   92  A    between atoms: _234  and  _236
REMARK   93  A    between atoms: _236  and  _237
REMARK   94  A    between atoms: _236  and  _239
REMARK   95  A    between atoms: _241  and  _243
REMARK   96  A    between atoms: _243  and  _244
REMARK   97  A    between atoms: _243  and  _246
REMARK   98  A    between atoms: _246  and  _247
REMARK   99  A    between atoms: _252  and  _253
REMARK  100  A    between atoms: _255  and  _257
REMARK  101  A    between atoms: _257  and  _258
REMARK  102  A    between atoms: _257  and  _260
REMARK  103  A    between atoms: _260  and  _261
REMARK  104  A    between atoms: _266  and  _267
REMARK  105  A    between atoms: _269  and  _271
REMARK  106  A    between atoms: _271  and  _272
REMARK  107  A    between atoms: _271  and  _274
REMARK  108  A    between atoms: _274  and  _275
REMARK  109  A    between atoms: _280  and  _282
REMARK  110  A    between atoms: _282  and  _283
REMARK  111  A    between atoms: _282  and  _285
REMARK  112  A    between atoms: _285  and  _286
REMARK  113  A    between atoms: _286  and  _287
REMARK  114  A    between atoms: _287  and  _288
REMARK  115  A    between atoms: _288  and  _289
REMARK  116  A    between atoms: _293  and  _295
REMARK  117  A    between atoms: _295  and  _296
REMARK  118  A    between atoms: _295  and  _298
REMARK  119  A    between atoms: _298  and  _299
REMARK  120  A    between atoms: _302  and  _304
REMARK  121  A    between atoms: _304  and  _305
REMARK  122  A    between atoms: _304  and  _307
REMARK  123  A    between atoms: _307  and  _308
REMARK  124  A    between atoms: _311  and  _313
REMARK  125  A    between atoms: _313  and  _314
REMARK  126  A    between atoms: _313  and  _316
REMARK  127  A    between atoms: _319  and  _321
REMARK  128  A    between atoms: _321  and  _322
REMARK  129  A    between atoms: _321  and  _324
REMARK  130  A    between atoms: _324  and  _325
REMARK  131  A    between atoms: _325  and  _326
REMARK  132  A    between atoms: _328  and  _330
REMARK  133  A    between atoms: _330  and  _331
REMARK                            x       y       z     vdW  Elec       q    Type
REMARK                         _______ _______ _______ _____ _____    ______ ____
ROOT
ATOM      1  O   HOH     1      -1.252  15.593  -5.748  0.00  0.00    +0.000 OA
ENDROOT
TORSDOF 0
REMARK  Name = ../refined-set-2016/4xya/4xya_pocket.pdb
REMARK  133 active torsions:
REMARK  status: ('A' for Active; 'I' for Inactive)
REMARK    1  A    between atoms: _1  and  _3
REMARK    2  A    between atoms: _3  and  _4
REMARK    3  A    between atoms: _7  and  _9
REMARK    4  A    between atoms: _9  and  _10
REMARK    5  A    between atoms: _9  and  _12
REMARK    6  A    between atoms: _12  and  _13
REMARK    7  A    between atoms: _24  and  _25
REMARK    8  A    between atoms: _30  and  _32
REMARK    9  A    between atoms: _32  and  _33
REMARK   10  A    between atoms: _32  and  _35
REMARK   11  A    between atoms: _35  and  _36
REMARK   12  A    between atoms: _42  and  _44
REMARK   13  A    between atoms: _44  and  _45
REMARK   14  A    between atoms: _44  and  _47
REMARK   15  A    between atoms: _47  and  _48
REMARK   16  A    between atoms: _48  and  _49
REMARK   17  A    between atoms: _54  and  _56
REMARK   18  A    between atoms: _56  and  _57
REMARK   19  A    between atoms: _56  and  _59
REMARK   20  A    between atoms: _59  and  _60
REMARK   21  A    between atoms: _60  and  _61
REMARK   22  A    between atoms: _67  and  _68
REMARK   23  A    between atoms: _73  and  _75
REMARK   24  A    between atoms: _75  and  _76
REMARK   25  A    between atoms: _75  and  _78
REMARK   26  A    between atoms: _81  and  _83
REMARK   27  A    between atoms: _83  and  _84
REMARK   28  A    between atoms: _83  and  _86
REMARK   29  A    between atoms: _86  and  _87
REMARK   30  A    between atoms: _90  and  _92
REMARK   31  A    between atoms: _92  and  _93
REMARK   32  A    between atoms: _96  and  _98
REMARK   33  A    between atoms: _98  and  _99
REMARK   34  A    between atoms: _98  and  _101
REMARK   35  A    between atoms: _101  and  _102
REMARK   36  A    between atoms: _102  and  _103
REMARK   37  A    between atoms: _103  and  _104
REMARK   38  A    between atoms: _104  and  _105
REMARK   39  A    between atoms: _109  and  _111
REMARK   40  A    between atoms: _111  and  _112
REMARK   41  A    between atoms: _111  and  _114
REMARK   42  A    between atoms: _114  and  _115
REMARK   43  A    between atoms: _118  and  _120
REMARK   44  A    between atoms: _120  and  _121
REMARK   45  A    between atoms: _120  and  _123
REMARK   46  A    between atoms: _123  and  _124
REMARK   47  A    between atoms: _129  and  _131
REMARK   48  A    between atoms: _131  and  _132
REMARK   49  A    between atoms: _131  and  _134
REMARK   50  A    between atoms: _134  and  _135
REMARK   51  A    between atoms: _138  and  _140
REMARK   52  A    between atoms: _140  and  _141
REMARK   53  A    between atoms: _140  and  _143
REMARK   54  A    between atoms: _143  and  _144
REMARK   55  A    between atoms: _149  and  _150
REMARK   56  A    between atoms: _152  and  _154
REMARK   57  A    between atoms: _154  and  _155
REMARK   58  A    between atoms: _154  and  _157
REMARK   59  A    between atoms: _157  and  _158
REMARK   60  A    between atoms: _163  and  _164
REMARK   61  A    between atoms: _166  and  _168
REMARK   62  A    between atoms: _168  and  _169
REMARK   63  A    between atoms: _168  and  _171
REMARK   64  A    between atoms: _171  and  _172
REMARK   65  A    between atoms: _175  and  _177
REMARK   66  A    between atoms: _177  and  _178
REMARK   67  A    between atoms: _177  and  _180
REMARK   68  A    between atoms: _180  and  _181
REMARK   69  A    between atoms: _181  and  _182
REMARK   70  A    between atoms: _184  and  _186
REMARK   71  A    between atoms: _186  and  _187
REMARK   72  A    between atoms: _186  and  _189
REMARK   73  A    between atoms: _189  and  _190
REMARK   74  A    between atoms: _193  and  _195
REMARK   75  A    between atoms: _195  and  _196
REMARK   76  A    between atoms: _195  and  _198
REMARK   77  A    between atoms: _198  and  _199
REMARK   78  A    between atoms: _199  and  _200
REMARK   79  A    between atoms: _202  and  _204
REMARK   80  A    between atoms: _204  and  _205
REMARK   81  A    between atoms: _204  and  _207
REMARK   82  A    between atoms: _207  and  _208
REMARK   83  A    between atoms: _208  and  _209
REMARK   84  A    between atoms: _211  and  _213
REMARK   85  A    between atoms: _213  and  _214
REMARK   86  A    between atoms: _213  and  _216
REMARK   87  A    between atoms: _216  and  _217
REMARK   88  A    between atoms: _223  and  _225
REMARK   89  A    between atoms: _225  and  _226
REMARK   90  A    between atoms: _225  and  _228
REMARK   91  A    between atoms: _228  and  _229
REMARK   92  A    between atoms: _234  and  _236
REMARK   93  A    between atoms: _236  and  _237
REMARK   94  A    between atoms: _236  and  _239
REMARK   95  A    between atoms: _241  and  _243
REMARK   96  A    between atoms: _243  and  _244
REMARK   97  A    between atoms: _243  and  _246
REMARK   98  A    between atoms: _246  and  _247
REMARK   99  A    between atoms: _252  and  _253
REMARK  100  A    between atoms: _255  and  _257
REMARK  101  A    between atoms: _257  and  _258
REMARK  102  A    between atoms: _257  and  _260
REMARK  103  A    between atoms: _260  and  _261
REMARK  104  A    between atoms: _266  and  _267
REMARK  105  A    between atoms: _269  and  _271
REMARK  106  A    between atoms: _271  and  _272
REMARK  107  A    between atoms: _271  and  _274
REMARK  108  A    between atoms: _274  and  _275
REMARK  109  A    between atoms: _280  and  _282
REMARK  110  A    between atoms: _282  and  _283
REMARK  111  A    between atoms: _282  and  _285
REMARK  112  A    between atoms: _285  and  _286
REMARK  113  A    between atoms: _286  and  _287
REMARK  114  A    between atoms: _287  and  _288
REMARK  115  A    between atoms: _288  and  _289
REMARK  116  A    between atoms: _293  and  _295
REMARK  117  A    between atoms: _295  and  _296
REMARK  118  A    between atoms: _295  and  _298
REMARK  119  A    between atoms: _298  and  _299
REMARK  120  A    between atoms: _302  and  _304
REMARK  121  A    between atoms: _304  and  _305
REMARK  122  A    between atoms: _304  and  _307
REMARK  123  A    between atoms: _307  and  _308
REMARK  124  A    between atoms: _311  and  _313
REMARK  125  A    between atoms: _313  and  _314
REMARK  126  A    between atoms: _313  and  _316
REMARK  127  A    between atoms: _319  and  _321
REMARK  128  A    between atoms: _321  and  _322
REMARK  129  A    between atoms: _321  and  _324
REMARK  130  A    between atoms: _324  and  _325
REMARK  131  A    between atoms: _325  and  _326
REMARK  132  A    between atoms: _328  and  _330
REMARK  133  A    between atoms: _330  and  _331
REMARK                            x       y       z     vdW  Elec       q    Type
REMARK                         _______ _______ _______ _____ _____    ______ ____
ROOT
ATOM      1  O   HOH     1      -4.697   8.052  -3.906  0.00  0.00    +0.000 OA
ENDROOT
TORSDOF 0
REMARK  Name = ../refined-set-2016/4xya/4xya_pocket.pdb
REMARK  133 active torsions:
REMARK  status: ('A' for Active; 'I' for Inactive)
REMARK    1  A    between atoms: _1  and  _3
REMARK    2  A    between atoms: _3  and  _4
REMARK    3  A    between atoms: _7  and  _9
REMARK    4  A    between atoms: _9  and  _10
REMARK    5  A    between atoms: _9  and  _12
REMARK    6  A    between atoms: _12  and  _13
REMARK    7  A    between atoms: _24  and  _25
REMARK    8  A    between atoms: _30  and  _32
REMARK    9  A    between atoms: _32  and  _33
REMARK   10  A    between atoms: _32  and  _35
REMARK   11  A    between atoms: _35  and  _36
REMARK   12  A    between atoms: _42  and  _44
REMARK   13  A    between atoms: _44  and  _45
REMARK   14  A    between atoms: _44  and  _47
REMARK   15  A    between atoms: _47  and  _48
REMARK   16  A    between atoms: _48  and  _49
REMARK   17  A    between atoms: _54  and  _56
REMARK   18  A    between atoms: _56  and  _57
REMARK   19  A    between atoms: _56  and  _59
REMARK   20  A    between atoms: _59  and  _60
REMARK   21  A    between atoms: _60  and  _61
REMARK   22  A    between atoms: _67  and  _68
REMARK   23  A    between atoms: _73  and  _75
REMARK   24  A    between atoms: _75  and  _76
REMARK   25  A    between atoms: _75  and  _78
REMARK   26  A    between atoms: _81  and  _83
REMARK   27  A    between atoms: _83  and  _84
REMARK   28  A    between atoms: _83  and  _86
REMARK   29  A    between atoms: _86  and  _87
REMARK   30  A    between atoms: _90  and  _92
REMARK   31  A    between atoms: _92  and  _93
REMARK   32  A    between atoms: _96  and  _98
REMARK   33  A    between atoms: _98  and  _99
REMARK   34  A    between atoms: _98  and  _101
REMARK   35  A    between atoms: _101  and  _102
REMARK   36  A    between atoms: _102  and  _103
REMARK   37  A    between atoms: _103  and  _104
REMARK   38  A    between atoms: _104  and  _105
REMARK   39  A    between atoms: _109  and  _111
REMARK   40  A    between atoms: _111  and  _112
REMARK   41  A    between atoms: _111  and  _114
REMARK   42  A    between atoms: _114  and  _115
REMARK   43  A    between atoms: _118  and  _120
REMARK   44  A    between atoms: _120  and  _121
REMARK   45  A    between atoms: _120  and  _123
REMARK   46  A    between atoms: _123  and  _124
REMARK   47  A    between atoms: _129  and  _131
REMARK   48  A    between atoms: _131  and  _132
REMARK   49  A    between atoms: _131  and  _134
REMARK   50  A    between atoms: _134  and  _135
REMARK   51  A    between atoms: _138  and  _140
REMARK   52  A    between atoms: _140  and  _141
REMARK   53  A    between atoms: _140  and  _143
REMARK   54  A    between atoms: _143  and  _144
REMARK   55  A    between atoms: _149  and  _150
REMARK   56  A    between atoms: _152  and  _154
REMARK   57  A    between atoms: _154  and  _155
REMARK   58  A    between atoms: _154  and  _157
REMARK   59  A    between atoms: _157  and  _158
REMARK   60  A    between atoms: _163  and  _164
REMARK   61  A    between atoms: _166  and  _168
REMARK   62  A    between atoms: _168  and  _169
REMARK   63  A    between atoms: _168  and  _171
REMARK   64  A    between atoms: _171  and  _172
REMARK   65  A    between atoms: _175  and  _177
REMARK   66  A    between atoms: _177  and  _178
REMARK   67  A    between atoms: _177  and  _180
REMARK   68  A    between atoms: _180  and  _181
REMARK   69  A    between atoms: _181  and  _182
REMARK   70  A    between atoms: _184  and  _186
REMARK   71  A    between atoms: _186  and  _187
REMARK   72  A    between atoms: _186  and  _189
REMARK   73  A    between atoms: _189  and  _190
REMARK   74  A    between atoms: _193  and  _195
REMARK   75  A    between atoms: _195  and  _196
REMARK   76  A    between atoms: _195  and  _198
REMARK   77  A    between atoms: _198  and  _199
REMARK   78  A    between atoms: _199  and  _200
REMARK   79  A    between atoms: _202  and  _204
REMARK   80  A    between atoms: _204  and  _205
REMARK   81  A    between atoms: _204  and  _207
REMARK   82  A    between atoms: _207  and  _208
REMARK   83  A    between atoms: _208  and  _209
REMARK   84  A    between atoms: _211  and  _213
REMARK   85  A    between atoms: _213  and  _214
REMARK   86  A    between atoms: _213  and  _216
REMARK   87  A    between atoms: _216  and  _217
REMARK   88  A    between atoms: _223  and  _225
REMARK   89  A    between atoms: _225  and  _226
REMARK   90  A    between atoms: _225  and  _228
REMARK   91  A    between atoms: _228  and  _229
REMARK   92  A    between atoms: _234  and  _236
REMARK   93  A    between atoms: _236  and  _237
REMARK   94  A    between atoms: _236  and  _239
REMARK   95  A    between atoms: _241  and  _243
REMARK   96  A    between atoms: _243  and  _244
REMARK   97  A    between atoms: _243  and  _246
REMARK   98  A    between atoms: _246  and  _247
REMARK   99  A    between atoms: _252  and  _253
REMARK  100  A    between atoms: _255  and  _257
REMARK  101  A    between atoms: _257  and  _258
REMARK  102  A    between atoms: _257  and  _260
REMARK  103  A    between atoms: _260  and  _261
REMARK  104  A    between atoms: _266  and  _267
REMARK  105  A    between atoms: _269  and  _271
REMARK  106  A    between atoms: _271  and  _272
REMARK  107  A    between atoms: _271  and  _274
REMARK  108  A    between atoms: _274  and  _275
REMARK  109  A    between atoms: _280  and  _282
REMARK  110  A    between atoms: _282  and  _283
REMARK  111  A    between atoms: _282  and  _285
REMARK  112  A    between atoms: _285  and  _286
REMARK  113  A    between atoms: _286  and  _287
REMARK  114  A    between atoms: _287  and  _288
REMARK  115  A    between atoms: _288  and  _289
REMARK  116  A    between atoms: _293  and  _295
REMARK  117  A    between atoms: _295  and  _296
REMARK  118  A    between atoms: _295  and  _298
REMARK  119  A    between atoms: _298  and  _299
REMARK  120  A    between atoms: _302  and  _304
REMARK  121  A    between atoms: _304  and  _305
REMARK  122  A    between atoms: _304  and  _307
REMARK  123  A    between atoms: _307  and  _308
REMARK  124  A    between atoms: _311  and  _313
REMARK  125  A    between atoms: _313  and  _314
REMARK  126  A    between atoms: _313  and  _316
REMARK  127  A    between atoms: _319  and  _321
REMARK  128  A    between atoms: _321  and  _322
REMARK  129  A    between atoms: _321  and  _324
REMARK  130  A    between atoms: _324  and  _325
REMARK  131  A    between atoms: _325  and  _326
REMARK  132  A    between atoms: _328  and  _330
REMARK  133  A    between atoms: _330  and  _331
REMARK                            x       y       z     vdW  Elec       q    Type
REMARK                         _______ _______ _______ _____ _____    ______ ____
ROOT
ATOM      1  O   HOH     1       1.442  13.860  -4.362  0.00  0.00    +0.000 OA
ENDROOT
TORSDOF 0
