REMARK  Name = ../refined-set-2016/4zls/4zls_pocket.pdb
REMARK  232 active torsions:
REMARK  status: ('A' for Active; 'I' for Inactive)
REMARK    1  A    between atoms: _1  and  _3
REMARK    2  A    between atoms: _3  and  _4
REMARK    3  A    between atoms: _3  and  _6
REMARK    4  A    between atoms: _6  and  _7
REMARK    5  A    between atoms: _7  and  _8
REMARK    6  A    between atoms: _8  and  _9
REMARK    7  A    between atoms: _18  and  _20
REMARK    8  A    between atoms: _20  and  _21
REMARK    9  A    between atoms: _20  and  _23
REMARK   10  A    between atoms: _23  and  _24
REMARK   11  A    between atoms: _27  and  _29
REMARK   12  A    between atoms: _29  and  _30
REMARK   13  A    between atoms: _29  and  _32
REMARK   14  A    between atoms: _32  and  _33
REMARK   15  A    between atoms: _36  and  _38
REMARK   16  A    between atoms: _38  and  _39
REMARK   17  A    between atoms: _38  and  _41
REMARK   18  A    between atoms: _41  and  _42
REMARK   19  A    between atoms: _45  and  _47
REMARK   20  A    between atoms: _47  and  _48
REMARK   21  A    between atoms: _47  and  _50
REMARK   22  A    between atoms: _50  and  _51
REMARK   23  A    between atoms: _54  and  _56
REMARK   24  A    between atoms: _56  and  _57
REMARK   25  A    between atoms: _59  and  _61
REMARK   26  A    between atoms: _61  and  _62
REMARK   27  A    between atoms: _65  and  _67
REMARK   28  A    between atoms: _67  and  _68
REMARK   29  A    between atoms: _67  and  _70
REMARK   30  A    between atoms: _70  and  _71
REMARK   31  A    between atoms: _74  and  _76
REMARK   32  A    between atoms: _76  and  _77
REMARK   33  A    between atoms: _76  and  _79
REMARK   34  A    between atoms: _79  and  _80
REMARK   35  A    between atoms: _83  and  _85
REMARK   36  A    between atoms: _85  and  _86
REMARK   37  A    between atoms: _85  and  _88
REMARK   38  A    between atoms: _88  and  _89
REMARK   39  A    between atoms: _92  and  _94
REMARK   40  A    between atoms: _94  and  _95
REMARK   41  A    between atoms: _94  and  _97
REMARK   42  A    between atoms: _100  and  _102
REMARK   43  A    between atoms: _102  and  _103
REMARK   44  A    between atoms: _102  and  _105
REMARK   45  A    between atoms: _105  and  _106
REMARK   46  A    between atoms: _106  and  _107
REMARK   47  A    between atoms: _107  and  _108
REMARK   48  A    between atoms: _108  and  _109
REMARK   49  A    between atoms: _113  and  _115
REMARK   50  A    between atoms: _115  and  _116
REMARK   51  A    between atoms: _115  and  _118
REMARK   52  A    between atoms: _118  and  _119
REMARK   53  A    between atoms: _119  and  _120
REMARK   54  A    between atoms: _122  and  _124
REMARK   55  A    between atoms: _124  and  _125
REMARK   56  A    between atoms: _124  and  _127
REMARK   57  A    between atoms: _127  and  _128
REMARK   58  A    between atoms: _131  and  _133
REMARK   59  A    between atoms: _133  and  _134
REMARK   60  A    between atoms: _136  and  _138
REMARK   61  A    between atoms: _138  and  _139
REMARK   62  A    between atoms: _141  and  _143
REMARK   63  A    between atoms: _143  and  _144
REMARK   64  A    between atoms: _143  and  _146
REMARK   65  A    between atoms: _146  and  _147
REMARK   66  A    between atoms: _150  and  _152
REMARK   67  A    between atoms: _152  and  _153
REMARK   68  A    between atoms: _155  and  _157
REMARK   69  A    between atoms: _157  and  _158
REMARK   70  A    between atoms: _160  and  _162
REMARK   71  A    between atoms: _162  and  _163
REMARK   72  A    between atoms: _162  and  _165
REMARK   73  A    between atoms: _165  and  _166
REMARK   74  A    between atoms: _172  and  _174
REMARK   75  A    between atoms: _174  and  _175
REMARK   76  A    between atoms: _174  and  _177
REMARK   77  A    between atoms: _177  and  _178
REMARK   78  A    between atoms: _181  and  _183
REMARK   79  A    between atoms: _183  and  _184
REMARK   80  A    between atoms: _183  and  _186
REMARK   81  A    between atoms: _186  and  _187
REMARK   82  A    between atoms: _190  and  _192
REMARK   83  A    between atoms: _192  and  _193
REMARK   84  A    between atoms: _192  and  _195
REMARK   85  A    between atoms: _195  and  _196
REMARK   86  A    between atoms: _200  and  _201
REMARK   87  A    between atoms: _206  and  _208
REMARK   88  A    between atoms: _208  and  _209
REMARK   89  A    between atoms: _208  and  _211
REMARK   90  A    between atoms: _214  and  _216
REMARK   91  A    between atoms: _216  and  _217
REMARK   92  A    between atoms: _216  and  _219
REMARK   93  A    between atoms: _219  and  _220
REMARK   94  A    between atoms: _225  and  _227
REMARK   95  A    between atoms: _227  and  _228
REMARK   96  A    between atoms: _227  and  _230
REMARK   97  A    between atoms: _230  and  _231
REMARK   98  A    between atoms: _234  and  _236
REMARK   99  A    between atoms: _236  and  _237
REMARK  100  A    between atoms: _239  and  _241
REMARK  101  A    between atoms: _241  and  _242
REMARK  102  A    between atoms: _241  and  _244
REMARK  103  A    between atoms: _244  and  _245
REMARK  104  A    between atoms: _245  and  _246
REMARK  105  A    between atoms: _246  and  _247
REMARK  106  A    between atoms: _256  and  _258
REMARK  107  A    between atoms: _258  and  _259
REMARK  108  A    between atoms: _258  and  _261
REMARK  109  A    between atoms: _261  and  _262
REMARK  110  A    between atoms: _267  and  _269
REMARK  111  A    between atoms: _269  and  _270
REMARK  112  A    between atoms: _269  and  _272
REMARK  113  A    between atoms: _272  and  _273
REMARK  114  A    between atoms: _273  and  _274
REMARK  115  A    between atoms: _274  and  _275
REMARK  116  A    between atoms: _284  and  _286
REMARK  117  A    between atoms: _286  and  _287
REMARK  118  A    between atoms: _286  and  _289
REMARK  119  A    between atoms: _289  and  _290
REMARK  120  A    between atoms: _293  and  _295
REMARK  121  A    between atoms: _295  and  _296
REMARK  122  A    between atoms: _295  and  _298
REMARK  123  A    between atoms: _298  and  _299
REMARK  124  A    between atoms: _302  and  _304
REMARK  125  A    between atoms: _304  and  _305
REMARK  126  A    between atoms: _304  and  _307
REMARK  127  A    between atoms: _307  and  _308
REMARK  128  A    between atoms: _311  and  _313
REMARK  129  A    between atoms: _313  and  _314
REMARK  130  A    between atoms: _313  and  _316
REMARK  131  A    between atoms: _316  and  _317
REMARK  132  A    between atoms: _320  and  _322
REMARK  133  A    between atoms: _322  and  _323
REMARK  134  A    between atoms: _322  and  _325
REMARK  135  A    between atoms: _325  and  _326
REMARK  136  A    between atoms: _329  and  _331
REMARK  137  A    between atoms: _331  and  _332
REMARK  138  A    between atoms: _334  and  _336
REMARK  139  A    between atoms: _336  and  _337
REMARK  140  A    between atoms: _340  and  _342
REMARK  141  A    between atoms: _342  and  _343
REMARK  142  A    between atoms: _342  and  _345
REMARK  143  A    between atoms: _345  and  _346
REMARK  144  A    between atoms: _349  and  _351
REMARK  145  A    between atoms: _351  and  _352
REMARK  146  A    between atoms: _351  and  _354
REMARK  147  A    between atoms: _354  and  _355
REMARK  148  A    between atoms: _358  and  _360
REMARK  149  A    between atoms: _360  and  _361
REMARK  150  A    between atoms: _360  and  _363
REMARK  151  A    between atoms: _363  and  _364
REMARK  152  A    between atoms: _367  and  _369
REMARK  153  A    between atoms: _369  and  _370
REMARK  154  A    between atoms: _369  and  _372
REMARK  155  A    between atoms: _375  and  _377
REMARK  156  A    between atoms: _377  and  _378
REMARK  157  A    between atoms: _377  and  _380
REMARK  158  A    between atoms: _380  and  _381
REMARK  159  A    between atoms: _381  and  _382
REMARK  160  A    between atoms: _382  and  _383
REMARK  161  A    between atoms: _383  and  _384
REMARK  162  A    between atoms: _388  and  _390
REMARK  163  A    between atoms: _390  and  _391
REMARK  164  A    between atoms: _390  and  _393
REMARK  165  A    between atoms: _393  and  _394
REMARK  166  A    between atoms: _394  and  _395
REMARK  167  A    between atoms: _397  and  _399
REMARK  168  A    between atoms: _399  and  _400
REMARK  169  A    between atoms: _399  and  _402
REMARK  170  A    between atoms: _402  and  _403
REMARK  171  A    between atoms: _406  and  _408
REMARK  172  A    between atoms: _408  and  _409
REMARK  173  A    between atoms: _411  and  _413
REMARK  174  A    between atoms: _413  and  _414
REMARK  175  A    between atoms: _416  and  _418
REMARK  176  A    between atoms: _418  and  _419
REMARK  177  A    between atoms: _418  and  _421
REMARK  178  A    between atoms: _421  and  _422
REMARK  179  A    between atoms: _425  and  _427
REMARK  180  A    between atoms: _427  and  _428
REMARK  181  A    between atoms: _430  and  _432
REMARK  182  A    between atoms: _432  and  _433
REMARK  183  A    between atoms: _435  and  _437
REMARK  184  A    between atoms: _437  and  _438
REMARK  185  A    between atoms: _437  and  _440
REMARK  186  A    between atoms: _440  and  _441
REMARK  187  A    between atoms: _447  and  _449
REMARK  188  A    between atoms: _449  and  _450
REMARK  189  A    between atoms: _449  and  _452
REMARK  190  A    between atoms: _452  and  _453
REMARK  191  A    between atoms: _456  and  _458
REMARK  192  A    between atoms: _458  and  _459
REMARK  193  A    between atoms: _458  and  _461
REMARK  194  A    between atoms: _464  and  _466
REMARK  195  A    between atoms: _466  and  _467
REMARK  196  A    between atoms: _466  and  _469
REMARK  197  A    between atoms: _469  and  _470
REMARK  198  A    between atoms: _473  and  _475
REMARK  199  A    between atoms: _475  and  _476
REMARK  200  A    between atoms: _479  and  _480
REMARK  201  A    between atoms: _485  and  _487
REMARK  202  A    between atoms: _487  and  _488
REMARK  203  A    between atoms: _487  and  _490
REMARK  204  A    between atoms: _490  and  _491
REMARK  205  A    between atoms: _495  and  _496
REMARK  206  A    between atoms: _501  and  _503
REMARK  207  A    between atoms: _503  and  _504
REMARK  208  A    between atoms: _503  and  _506
REMARK  209  A    between atoms: _509  and  _511
REMARK  210  A    between atoms: _511  and  _512
REMARK  211  A    between atoms: _511  and  _514
REMARK  212  A    between atoms: _514  and  _515
REMARK  213  A    between atoms: _520  and  _522
REMARK  214  A    between atoms: _522  and  _523
REMARK  215  A    between atoms: _522  and  _525
REMARK  216  A    between atoms: _525  and  _526
REMARK  217  A    between atoms: _529  and  _531
REMARK  218  A    between atoms: _531  and  _532
REMARK  219  A    between atoms: _531  and  _534
REMARK  220  A    between atoms: _534  and  _535
REMARK  221  A    between atoms: _538  and  _540
REMARK  222  A    between atoms: _540  and  _541
REMARK  223  A    between atoms: _543  and  _545
REMARK  224  A    between atoms: _545  and  _546
REMARK  225  A    between atoms: _545  and  _548
REMARK  226  A    between atoms: _548  and  _549
REMARK  227  A    between atoms: _549  and  _550
REMARK  228  A    between atoms: _550  and  _551
REMARK  229  A    between atoms: _560  and  _562
REMARK  230  A    between atoms: _562  and  _563
REMARK  231  A    between atoms: _562  and  _565
REMARK  232  A    between atoms: _565  and  _566
REMARK                            x       y       z     vdW  Elec       q    Type
REMARK                         _______ _______ _______ _____ _____    ______ ____
ROOT
ATOM      1  NE  ARG A   1       6.019  21.052  15.223  0.00  0.00    -0.265 N 
ATOM      2  HE  ARG A   1       6.287  20.950  16.223  0.00  0.00    +0.259 HD
ATOM      3  CZ  ARG A   1       6.381  20.105  14.368  0.00  0.00    +0.342 C 
ATOM      4  NH2 ARG A   1       7.073  19.068  14.816  0.00  0.00    -0.292 N 
ATOM      5 HH21 ARG A   1       7.324  19.006  15.823  0.00  0.00    +0.255 HD
ATOM      6 HH22 ARG A   1       7.366  18.316  14.160  0.00  0.00    +0.255 HD
ATOM      7  NH1 ARG A   1       6.048  20.209  13.083  0.00  0.00    -0.292 N 
ATOM      8 HH11 ARG A   1       5.505  21.032  12.751  0.00  0.00    +0.255 HD
ATOM      9 HH12 ARG A   1       6.331  19.468  12.411  0.00  0.00    +0.255 HD
ENDROOT
BRANCH   1  10
ATOM     10  CD  ARG A   1       5.258  22.235  14.819  0.00  0.00    +0.174 C 
BRANCH  10  11
ATOM     11  CG  ARG A   1       4.866  23.049  16.051  0.00  0.00    +0.045 C 
BRANCH  11  12
ATOM     12  CB  ARG A   1       4.424  24.449  15.624  0.00  0.00    +0.029 C 
BRANCH  12  13
ATOM     13  CA  ARG A   1       3.818  25.229  16.792  0.00  0.00    +0.133 C 
BRANCH  13  14
ATOM     14  N   ARG A   1       2.581  24.591  17.273  0.00  0.00    -0.239 NA
ATOM     15  H   ARG A   1       2.228  23.720  16.828  0.00  0.00    +0.142 HD
ENDBRANCH  13  14
BRANCH  13  16
ATOM     16  C   ARG A   1       3.531  26.655  16.345  0.00  0.00    +0.224 C 
ATOM     17  O   ARG A   1       2.554  26.871  15.624  0.00  0.00    -0.287 OA
ENDBRANCH  13  16
ENDBRANCH  12  13
ENDBRANCH  11  12
ENDBRANCH  10  11
ENDBRANCH   1  10
TORSDOF 6
REMARK  Name = ../refined-set-2016/4zls/4zls_pocket.pdb
REMARK  232 active torsions:
REMARK  status: ('A' for Active; 'I' for Inactive)
REMARK    1  A    between atoms: _1  and  _3
REMARK    2  A    between atoms: _3  and  _4
REMARK    3  A    between atoms: _3  and  _6
REMARK    4  A    between atoms: _6  and  _7
REMARK    5  A    between atoms: _7  and  _8
REMARK    6  A    between atoms: _8  and  _9
REMARK    7  A    between atoms: _18  and  _20
REMARK    8  A    between atoms: _20  and  _21
REMARK    9  A    between atoms: _20  and  _23
REMARK   10  A    between atoms: _23  and  _24
REMARK   11  A    between atoms: _27  and  _29
REMARK   12  A    between atoms: _29  and  _30
REMARK   13  A    between atoms: _29  and  _32
REMARK   14  A    between atoms: _32  and  _33
REMARK   15  A    between atoms: _36  and  _38
REMARK   16  A    between atoms: _38  and  _39
REMARK   17  A    between atoms: _38  and  _41
REMARK   18  A    between atoms: _41  and  _42
REMARK   19  A    between atoms: _45  and  _47
REMARK   20  A    between atoms: _47  and  _48
REMARK   21  A    between atoms: _47  and  _50
REMARK   22  A    between atoms: _50  and  _51
REMARK   23  A    between atoms: _54  and  _56
REMARK   24  A    between atoms: _56  and  _57
REMARK   25  A    between atoms: _59  and  _61
REMARK   26  A    between atoms: _61  and  _62
REMARK   27  A    between atoms: _65  and  _67
REMARK   28  A    between atoms: _67  and  _68
REMARK   29  A    between atoms: _67  and  _70
REMARK   30  A    between atoms: _70  and  _71
REMARK   31  A    between atoms: _74  and  _76
REMARK   32  A    between atoms: _76  and  _77
REMARK   33  A    between atoms: _76  and  _79
REMARK   34  A    between atoms: _79  and  _80
REMARK   35  A    between atoms: _83  and  _85
REMARK   36  A    between atoms: _85  and  _86
REMARK   37  A    between atoms: _85  and  _88
REMARK   38  A    between atoms: _88  and  _89
REMARK   39  A    between atoms: _92  and  _94
REMARK   40  A    between atoms: _94  and  _95
REMARK   41  A    between atoms: _94  and  _97
REMARK   42  A    between atoms: _100  and  _102
REMARK   43  A    between atoms: _102  and  _103
REMARK   44  A    between atoms: _102  and  _105
REMARK   45  A    between atoms: _105  and  _106
REMARK   46  A    between atoms: _106  and  _107
REMARK   47  A    between atoms: _107  and  _108
REMARK   48  A    between atoms: _108  and  _109
REMARK   49  A    between atoms: _113  and  _115
REMARK   50  A    between atoms: _115  and  _116
REMARK   51  A    between atoms: _115  and  _118
REMARK   52  A    between atoms: _118  and  _119
REMARK   53  A    between atoms: _119  and  _120
REMARK   54  A    between atoms: _122  and  _124
REMARK   55  A    between atoms: _124  and  _125
REMARK   56  A    between atoms: _124  and  _127
REMARK   57  A    between atoms: _127  and  _128
REMARK   58  A    between atoms: _131  and  _133
REMARK   59  A    between atoms: _133  and  _134
REMARK   60  A    between atoms: _136  and  _138
REMARK   61  A    between atoms: _138  and  _139
REMARK   62  A    between atoms: _141  and  _143
REMARK   63  A    between atoms: _143  and  _144
REMARK   64  A    between atoms: _143  and  _146
REMARK   65  A    between atoms: _146  and  _147
REMARK   66  A    between atoms: _150  and  _152
REMARK   67  A    between atoms: _152  and  _153
REMARK   68  A    between atoms: _155  and  _157
REMARK   69  A    between atoms: _157  and  _158
REMARK   70  A    between atoms: _160  and  _162
REMARK   71  A    between atoms: _162  and  _163
REMARK   72  A    between atoms: _162  and  _165
REMARK   73  A    between atoms: _165  and  _166
REMARK   74  A    between atoms: _172  and  _174
REMARK   75  A    between atoms: _174  and  _175
REMARK   76  A    between atoms: _174  and  _177
REMARK   77  A    between atoms: _177  and  _178
REMARK   78  A    between atoms: _181  and  _183
REMARK   79  A    between atoms: _183  and  _184
REMARK   80  A    between atoms: _183  and  _186
REMARK   81  A    between atoms: _186  and  _187
REMARK   82  A    between atoms: _190  and  _192
REMARK   83  A    between atoms: _192  and  _193
REMARK   84  A    between atoms: _192  and  _195
REMARK   85  A    between atoms: _195  and  _196
REMARK   86  A    between atoms: _200  and  _201
REMARK   87  A    between atoms: _206  and  _208
REMARK   88  A    between atoms: _208  and  _209
REMARK   89  A    between atoms: _208  and  _211
REMARK   90  A    between atoms: _214  and  _216
REMARK   91  A    between atoms: _216  and  _217
REMARK   92  A    between atoms: _216  and  _219
REMARK   93  A    between atoms: _219  and  _220
REMARK   94  A    between atoms: _225  and  _227
REMARK   95  A    between atoms: _227  and  _228
REMARK   96  A    between atoms: _227  and  _230
REMARK   97  A    between atoms: _230  and  _231
REMARK   98  A    between atoms: _234  and  _236
REMARK   99  A    between atoms: _236  and  _237
REMARK  100  A    between atoms: _239  and  _241
REMARK  101  A    between atoms: _241  and  _242
REMARK  102  A    between atoms: _241  and  _244
REMARK  103  A    between atoms: _244  and  _245
REMARK  104  A    between atoms: _245  and  _246
REMARK  105  A    between atoms: _246  and  _247
REMARK  106  A    between atoms: _256  and  _258
REMARK  107  A    between atoms: _258  and  _259
REMARK  108  A    between atoms: _258  and  _261
REMARK  109  A    between atoms: _261  and  _262
REMARK  110  A    between atoms: _267  and  _269
REMARK  111  A    between atoms: _269  and  _270
REMARK  112  A    between atoms: _269  and  _272
REMARK  113  A    between atoms: _272  and  _273
REMARK  114  A    between atoms: _273  and  _274
REMARK  115  A    between atoms: _274  and  _275
REMARK  116  A    between atoms: _284  and  _286
REMARK  117  A    between atoms: _286  and  _287
REMARK  118  A    between atoms: _286  and  _289
REMARK  119  A    between atoms: _289  and  _290
REMARK  120  A    between atoms: _293  and  _295
REMARK  121  A    between atoms: _295  and  _296
REMARK  122  A    between atoms: _295  and  _298
REMARK  123  A    between atoms: _298  and  _299
REMARK  124  A    between atoms: _302  and  _304
REMARK  125  A    between atoms: _304  and  _305
REMARK  126  A    between atoms: _304  and  _307
REMARK  127  A    between atoms: _307  and  _308
REMARK  128  A    between atoms: _311  and  _313
REMARK  129  A    between atoms: _313  and  _314
REMARK  130  A    between atoms: _313  and  _316
REMARK  131  A    between atoms: _316  and  _317
REMARK  132  A    between atoms: _320  and  _322
REMARK  133  A    between atoms: _322  and  _323
REMARK  134  A    between atoms: _322  and  _325
REMARK  135  A    between atoms: _325  and  _326
REMARK  136  A    between atoms: _329  and  _331
REMARK  137  A    between atoms: _331  and  _332
REMARK  138  A    between atoms: _334  and  _336
REMARK  139  A    between atoms: _336  and  _337
REMARK  140  A    between atoms: _340  and  _342
REMARK  141  A    between atoms: _342  and  _343
REMARK  142  A    between atoms: _342  and  _345
REMARK  143  A    between atoms: _345  and  _346
REMARK  144  A    between atoms: _349  and  _351
REMARK  145  A    between atoms: _351  and  _352
REMARK  146  A    between atoms: _351  and  _354
REMARK  147  A    between atoms: _354  and  _355
REMARK  148  A    between atoms: _358  and  _360
REMARK  149  A    between atoms: _360  and  _361
REMARK  150  A    between atoms: _360  and  _363
REMARK  151  A    between atoms: _363  and  _364
REMARK  152  A    between atoms: _367  and  _369
REMARK  153  A    between atoms: _369  and  _370
REMARK  154  A    between atoms: _369  and  _372
REMARK  155  A    between atoms: _375  and  _377
REMARK  156  A    between atoms: _377  and  _378
REMARK  157  A    between atoms: _377  and  _380
REMARK  158  A    between atoms: _380  and  _381
REMARK  159  A    between atoms: _381  and  _382
REMARK  160  A    between atoms: _382  and  _383
REMARK  161  A    between atoms: _383  and  _384
REMARK  162  A    between atoms: _388  and  _390
REMARK  163  A    between atoms: _390  and  _391
REMARK  164  A    between atoms: _390  and  _393
REMARK  165  A    between atoms: _393  and  _394
REMARK  166  A    between atoms: _394  and  _395
REMARK  167  A    between atoms: _397  and  _399
REMARK  168  A    between atoms: _399  and  _400
REMARK  169  A    between atoms: _399  and  _402
REMARK  170  A    between atoms: _402  and  _403
REMARK  171  A    between atoms: _406  and  _408
REMARK  172  A    between atoms: _408  and  _409
REMARK  173  A    between atoms: _411  and  _413
REMARK  174  A    between atoms: _413  and  _414
REMARK  175  A    between atoms: _416  and  _418
REMARK  176  A    between atoms: _418  and  _419
REMARK  177  A    between atoms: _418  and  _421
REMARK  178  A    between atoms: _421  and  _422
REMARK  179  A    between atoms: _425  and  _427
REMARK  180  A    between atoms: _427  and  _428
REMARK  181  A    between atoms: _430  and  _432
REMARK  182  A    between atoms: _432  and  _433
REMARK  183  A    between atoms: _435  and  _437
REMARK  184  A    between atoms: _437  and  _438
REMARK  185  A    between atoms: _437  and  _440
REMARK  186  A    between atoms: _440  and  _441
REMARK  187  A    between atoms: _447  and  _449
REMARK  188  A    between atoms: _449  and  _450
REMARK  189  A    between atoms: _449  and  _452
REMARK  190  A    between atoms: _452  and  _453
REMARK  191  A    between atoms: _456  and  _458
REMARK  192  A    between atoms: _458  and  _459
REMARK  193  A    between atoms: _458  and  _461
REMARK  194  A    between atoms: _464  and  _466
REMARK  195  A    between atoms: _466  and  _467
REMARK  196  A    between atoms: _466  and  _469
REMARK  197  A    between atoms: _469  and  _470
REMARK  198  A    between atoms: _473  and  _475
REMARK  199  A    between atoms: _475  and  _476
REMARK  200  A    between atoms: _479  and  _480
REMARK  201  A    between atoms: _485  and  _487
REMARK  202  A    between atoms: _487  and  _488
REMARK  203  A    between atoms: _487  and  _490
REMARK  204  A    between atoms: _490  and  _491
REMARK  205  A    between atoms: _495  and  _496
REMARK  206  A    between atoms: _501  and  _503
REMARK  207  A    between atoms: _503  and  _504
REMARK  208  A    between atoms: _503  and  _506
REMARK  209  A    between atoms: _509  and  _511
REMARK  210  A    between atoms: _511  and  _512
REMARK  211  A    between atoms: _511  and  _514
REMARK  212  A    between atoms: _514  and  _515
REMARK  213  A    between atoms: _520  and  _522
REMARK  214  A    between atoms: _522  and  _523
REMARK  215  A    between atoms: _522  and  _525
REMARK  216  A    between atoms: _525  and  _526
REMARK  217  A    between atoms: _529  and  _531
REMARK  218  A    between atoms: _531  and  _532
REMARK  219  A    between atoms: _531  and  _534
REMARK  220  A    between atoms: _534  and  _535
REMARK  221  A    between atoms: _538  and  _540
REMARK  222  A    between atoms: _540  and  _541
REMARK  223  A    between atoms: _543  and  _545
REMARK  224  A    between atoms: _545  and  _546
REMARK  225  A    between atoms: _545  and  _548
REMARK  226  A    between atoms: _548  and  _549
REMARK  227  A    between atoms: _549  and  _550
REMARK  228  A    between atoms: _550  and  _551
REMARK  229  A    between atoms: _560  and  _562
REMARK  230  A    between atoms: _562  and  _563
REMARK  231  A    between atoms: _562  and  _565
REMARK  232  A    between atoms: _565  and  _566
REMARK                            x       y       z     vdW  Elec       q    Type
REMARK                         _______ _______ _______ _____ _____    ______ ____
ROOT
ATOM      1  C   GLY A   5      16.880  28.436  19.800  0.00  0.00    +0.243 C 
ATOM      2  O   GLY A   5      17.957  27.842  19.964  0.00  0.00    -0.273 OA
ATOM      3  N   ALA A   6      16.584  29.139  18.694  0.00  0.00    -0.297 N 
ATOM      4  H   ALA A   6      15.665  29.622  18.637  0.00  0.00    +0.150 HD
ENDROOT
BRANCH   3   5
ATOM      5  CA  ALA A   6      17.502  29.247  17.576  0.00  0.00    +0.149 C 
ATOM      6  CB  ALA A   6      16.732  29.245  16.252  0.00  0.00    +0.031 C 
BRANCH   5   7
ATOM      7  C   ALA A   6      18.271  30.574  17.633  0.00  0.00    +0.241 C 
ATOM      8  N   ASP A   7      19.602  30.510  17.693  0.00  0.00    -0.297 N 
ATOM      9  H   ASP A   7      20.084  29.592  17.766  0.00  0.00    +0.150 HD
ATOM     10  O   ALA A   6      17.621  31.641  17.618  0.00  0.00    -0.273 OA
BRANCH   8  11
ATOM     11  CA  ASP A   7      20.369  31.749  17.654  0.00  0.00    +0.160 C 
BRANCH  11  12
ATOM     12  C   ASP A   7      20.223  32.454  16.299  0.00  0.00    +0.241 C 
ATOM     13  O   ASP A   7      20.244  33.675  16.228  0.00  0.00    -0.273 OA
ATOM     14  N   ASP A   8      20.121  31.641  15.243  0.00  0.00    -0.297 N 
ATOM     15  H   ASP A   8      19.987  30.625  15.418  0.00  0.00    +0.150 HD
BRANCH  14  16
ATOM     16  CA  ASP A   8      20.186  32.092  13.873  0.00  0.00    +0.160 C 
BRANCH  16  17
ATOM     17  C   ASP A   8      18.914  31.707  13.121  0.00  0.00    +0.241 C 
ATOM     18  O   ASP A   8      18.176  30.835  13.571  0.00  0.00    -0.273 OA
ATOM     19  N   THR A   9      18.667  32.368  11.997  0.00  0.00    -0.295 N 
ATOM     20  H   THR A   9      19.322  33.127  11.722  0.00  0.00    +0.150 HD
BRANCH  19  21
ATOM     21  CA  THR A   9      17.540  32.095  11.132  0.00  0.00    +0.176 C 
BRANCH  21  22
ATOM     22  C   THR A   9      18.017  31.153  10.024  0.00  0.00    +0.243 C 
ATOM     23  N   VAL A  10      17.297  30.062   9.785  0.00  0.00    -0.298 N 
ATOM     24  H   VAL A  10      16.390  29.937  10.278  0.00  0.00    +0.150 HD
ATOM     25  O   THR A   9      19.081  31.444   9.463  0.00  0.00    -0.273 OA
BRANCH  23  26
ATOM     26  CA  VAL A  10      17.744  29.034   8.849  0.00  0.00    +0.137 C 
BRANCH  26  27
ATOM     27  CB  VAL A  10      18.249  27.763   9.554  0.00  0.00    +0.026 C 
ATOM     28  CG2 VAL A  10      19.148  28.134  10.726  0.00  0.00    +0.002 C 
ATOM     29  CG1 VAL A  10      18.983  26.895   8.523  0.00  0.00    +0.002 C 
ENDBRANCH  26  27
BRANCH  26  30
ATOM     30  C   VAL A  10      16.555  28.683   7.948  0.00  0.00    +0.227 C 
ATOM     31  O   VAL A  10      15.491  28.324   8.420  0.00  0.00    -0.286 OA
ENDBRANCH  26  30
ENDBRANCH  23  26
ENDBRANCH  21  22
BRANCH  21  32
ATOM     32  CB  THR A   9      17.082  33.416  10.515  0.00  0.00    +0.137 C 
ATOM     33  CG2 THR A   9      16.028  33.276   9.438  0.00  0.00    +0.034 C 
BRANCH  32  34
ATOM     34  OG1 THR A   9      16.476  34.155  11.600  0.00  0.00    -0.382 OA
ATOM     35  HG1 THR A   9      17.147  34.300  12.314  0.00  0.00    +0.210 HD
ENDBRANCH  32  34
ENDBRANCH  21  32
ENDBRANCH  19  21
ENDBRANCH  16  17
BRANCH  16  36
ATOM     36  CB  ASP A   8      21.339  31.382  13.162  0.00  0.00    +0.143 C 
BRANCH  36  37
ATOM     37  CG  ASP A   8      22.644  31.470  13.933  0.00  0.00    +0.367 C 
ATOM     38  OD2 ASP A   8      22.967  32.601  14.340  0.00  0.00    -0.246 OA
ATOM     39  OD1 ASP A   8      23.277  30.406  14.108  0.00  0.00    -0.246 OA
ENDBRANCH  36  37
ENDBRANCH  16  36
ENDBRANCH  14  16
ENDBRANCH  11  12
BRANCH  11  40
ATOM     40  CB  ASP A   7      21.864  31.518  17.849  0.00  0.00    +0.143 C 
BRANCH  40  41
ATOM     41  CG  ASP A   7      22.226  30.921  19.201  0.00  0.00    +0.367 C 
ATOM     42  OD2 ASP A   7      21.512  31.127  20.185  0.00  0.00    -0.246 OA
ATOM     43  OD1 ASP A   7      23.274  30.243  19.251  0.00  0.00    -0.246 OA
ENDBRANCH  40  41
ENDBRANCH  11  40
ENDBRANCH   8  11
ENDBRANCH   5   7
ENDBRANCH   3   5
BRANCH   1  44
ATOM     44  CA  GLY A   5      15.822  28.424  20.880  0.00  0.00    +0.176 C 
BRANCH  44  47
ATOM     45  C   THR A   4      14.625  30.536  20.915  0.00  0.00    +0.243 C 
ATOM     46  O   THR A   4      15.569  31.110  21.464  0.00  0.00    -0.273 OA
ATOM     47  N   GLY A   5      14.660  29.254  20.596  0.00  0.00    -0.295 N 
ATOM     48  H   GLY A   5      13.835  28.826  20.129  0.00  0.00    +0.150 HD
BRANCH  45  49
ATOM     49  CA  THR A   4      13.374  31.331  20.555  0.00  0.00    +0.176 C 
BRANCH  49  51
ATOM     50  C   ASP A   3      12.977  30.432  18.353  0.00  0.00    +0.241 C 
ATOM     51  N   THR A   4      12.516  30.616  19.603  0.00  0.00    -0.295 N 
ATOM     52  H   THR A   4      11.580  30.262  19.886  0.00  0.00    +0.150 HD
ATOM     53  O   ASP A   3      14.111  30.801  18.005  0.00  0.00    -0.273 OA
BRANCH  50  54
ATOM     54  CA  ASP A   3      12.042  29.732  17.378  0.00  0.00    +0.160 C 
BRANCH  54  57
ATOM     55  C   LEU A   2       9.994  30.640  16.490  0.00  0.00    +0.241 C 
ATOM     56  O   LEU A   2       9.326  29.994  17.319  0.00  0.00    -0.273 OA
ATOM     57  N   ASP A   3      11.319  30.674  16.497  0.00  0.00    -0.297 N 
ATOM     58  H   ASP A   3      11.838  31.347  15.897  0.00  0.00    +0.150 HD
BRANCH  55  59
ATOM     59  CA  LEU A   2       9.255  31.368  15.373  0.00  0.00    +0.149 C 
BRANCH  59  61
ATOM     60  C   LEU A   1       9.338  29.666  13.647  0.00  0.00    +0.238 C 
ATOM     61  N   LEU A   2       8.615  30.368  14.509  0.00  0.00    -0.297 N 
ATOM     62  H   LEU A   2       7.589  30.209  14.573  0.00  0.00    +0.150 HD
ATOM     63  O   LEU A   1      10.545  29.867  13.453  0.00  0.00    -0.274 OA
BRANCH  60  64
ATOM     64  CA  LEU A   1       8.640  28.570  12.855  0.00  0.00    +0.145 C 
BRANCH  64  65
ATOM     65  N   LEU A   1       8.828  28.773  11.418  0.00  0.00    -0.238 NA
ATOM     66  H   LEU A   1       9.703  28.419  10.980  0.00  0.00    +0.142 HD
ENDBRANCH  64  65
BRANCH  64  67
ATOM     67  CB  LEU A   1       9.207  27.186  13.185  0.00  0.00    +0.026 C 
BRANCH  67  68
ATOM     68  CG  LEU A   1       9.193  26.716  14.630  0.00  0.00    +0.002 C 
ATOM     69  CD2 LEU A   1       7.806  26.262  15.050  0.00  0.00    +0.000 C 
ATOM     70  CD1 LEU A   1      10.169  25.559  14.846  0.00  0.00    +0.000 C 
ENDBRANCH  67  68
ENDBRANCH  64  67
ENDBRANCH  60  64
ENDBRANCH  59  61
BRANCH  59  71
ATOM     71  CB  LEU A   2       8.178  32.292  15.916  0.00  0.00    +0.029 C 
BRANCH  71  72
ATOM     72  CG  LEU A   2       7.344  33.026  14.870  0.00  0.00    +0.002 C 
ATOM     73  CD2 LEU A   2       6.366  33.973  15.553  0.00  0.00    +0.000 C 
ATOM     74  CD1 LEU A   2       8.265  33.782  13.934  0.00  0.00    +0.000 C 
ENDBRANCH  71  72
ENDBRANCH  59  71
ENDBRANCH  55  59
ENDBRANCH  54  57
BRANCH  54  75
ATOM     75  CB  ASP A   3      12.828  28.800  16.462  0.00  0.00    +0.143 C 
BRANCH  75  76
ATOM     76  CG  ASP A   3      13.498  27.632  17.159  0.00  0.00    +0.367 C 
ATOM     77  OD2 ASP A   3      13.557  27.609  18.399  0.00  0.00    -0.246 OA
ATOM     78  OD1 ASP A   3      13.947  26.704  16.434  0.00  0.00    -0.246 OA
ENDBRANCH  75  76
ENDBRANCH  54  75
ENDBRANCH  50  54
ENDBRANCH  49  51
BRANCH  49  79
ATOM     79  CB  THR A   4      12.592  31.663  21.837  0.00  0.00    +0.137 C 
ATOM     80  CG2 THR A   4      11.389  32.561  21.520  0.00  0.00    +0.034 C 
BRANCH  79  81
ATOM     81  OG1 THR A   4      12.109  30.429  22.404  0.00  0.00    -0.382 OA
ATOM     82  HG1 THR A   4      12.877  29.842  22.616  0.00  0.00    +0.210 HD
ENDBRANCH  79  81
ENDBRANCH  49  79
ENDBRANCH  45  49
ENDBRANCH  44  47
ENDBRANCH   1  44
TORSDOF 35
REMARK  Name = ../refined-set-2016/4zls/4zls_pocket.pdb
REMARK  232 active torsions:
REMARK  status: ('A' for Active; 'I' for Inactive)
REMARK    1  A    between atoms: _1  and  _3
REMARK    2  A    between atoms: _3  and  _4
REMARK    3  A    between atoms: _3  and  _6
REMARK    4  A    between atoms: _6  and  _7
REMARK    5  A    between atoms: _7  and  _8
REMARK    6  A    between atoms: _8  and  _9
REMARK    7  A    between atoms: _18  and  _20
REMARK    8  A    between atoms: _20  and  _21
REMARK    9  A    between atoms: _20  and  _23
REMARK   10  A    between atoms: _23  and  _24
REMARK   11  A    between atoms: _27  and  _29
REMARK   12  A    between atoms: _29  and  _30
REMARK   13  A    between atoms: _29  and  _32
REMARK   14  A    between atoms: _32  and  _33
REMARK   15  A    between atoms: _36  and  _38
REMARK   16  A    between atoms: _38  and  _39
REMARK   17  A    between atoms: _38  and  _41
REMARK   18  A    between atoms: _41  and  _42
REMARK   19  A    between atoms: _45  and  _47
REMARK   20  A    between atoms: _47  and  _48
REMARK   21  A    between atoms: _47  and  _50
REMARK   22  A    between atoms: _50  and  _51
REMARK   23  A    between atoms: _54  and  _56
REMARK   24  A    between atoms: _56  and  _57
REMARK   25  A    between atoms: _59  and  _61
REMARK   26  A    between atoms: _61  and  _62
REMARK   27  A    between atoms: _65  and  _67
REMARK   28  A    between atoms: _67  and  _68
REMARK   29  A    between atoms: _67  and  _70
REMARK   30  A    between atoms: _70  and  _71
REMARK   31  A    between atoms: _74  and  _76
REMARK   32  A    between atoms: _76  and  _77
REMARK   33  A    between atoms: _76  and  _79
REMARK   34  A    between atoms: _79  and  _80
REMARK   35  A    between atoms: _83  and  _85
REMARK   36  A    between atoms: _85  and  _86
REMARK   37  A    between atoms: _85  and  _88
REMARK   38  A    between atoms: _88  and  _89
REMARK   39  A    between atoms: _92  and  _94
REMARK   40  A    between atoms: _94  and  _95
REMARK   41  A    between atoms: _94  and  _97
REMARK   42  A    between atoms: _100  and  _102
REMARK   43  A    between atoms: _102  and  _103
REMARK   44  A    between atoms: _102  and  _105
REMARK   45  A    between atoms: _105  and  _106
REMARK   46  A    between atoms: _106  and  _107
REMARK   47  A    between atoms: _107  and  _108
REMARK   48  A    between atoms: _108  and  _109
REMARK   49  A    between atoms: _113  and  _115
REMARK   50  A    between atoms: _115  and  _116
REMARK   51  A    between atoms: _115  and  _118
REMARK   52  A    between atoms: _118  and  _119
REMARK   53  A    between atoms: _119  and  _120
REMARK   54  A    between atoms: _122  and  _124
REMARK   55  A    between atoms: _124  and  _125
REMARK   56  A    between atoms: _124  and  _127
REMARK   57  A    between atoms: _127  and  _128
REMARK   58  A    between atoms: _131  and  _133
REMARK   59  A    between atoms: _133  and  _134
REMARK   60  A    between atoms: _136  and  _138
REMARK   61  A    between atoms: _138  and  _139
REMARK   62  A    between atoms: _141  and  _143
REMARK   63  A    between atoms: _143  and  _144
REMARK   64  A    between atoms: _143  and  _146
REMARK   65  A    between atoms: _146  and  _147
REMARK   66  A    between atoms: _150  and  _152
REMARK   67  A    between atoms: _152  and  _153
REMARK   68  A    between atoms: _155  and  _157
REMARK   69  A    between atoms: _157  and  _158
REMARK   70  A    between atoms: _160  and  _162
REMARK   71  A    between atoms: _162  and  _163
REMARK   72  A    between atoms: _162  and  _165
REMARK   73  A    between atoms: _165  and  _166
REMARK   74  A    between atoms: _172  and  _174
REMARK   75  A    between atoms: _174  and  _175
REMARK   76  A    between atoms: _174  and  _177
REMARK   77  A    between atoms: _177  and  _178
REMARK   78  A    between atoms: _181  and  _183
REMARK   79  A    between atoms: _183  and  _184
REMARK   80  A    between atoms: _183  and  _186
REMARK   81  A    between atoms: _186  and  _187
REMARK   82  A    between atoms: _190  and  _192
REMARK   83  A    between atoms: _192  and  _193
REMARK   84  A    between atoms: _192  and  _195
REMARK   85  A    between atoms: _195  and  _196
REMARK   86  A    between atoms: _200  and  _201
REMARK   87  A    between atoms: _206  and  _208
REMARK   88  A    between atoms: _208  and  _209
REMARK   89  A    between atoms: _208  and  _211
REMARK   90  A    between atoms: _214  and  _216
REMARK   91  A    between atoms: _216  and  _217
REMARK   92  A    between atoms: _216  and  _219
REMARK   93  A    between atoms: _219  and  _220
REMARK   94  A    between atoms: _225  and  _227
REMARK   95  A    between atoms: _227  and  _228
REMARK   96  A    between atoms: _227  and  _230
REMARK   97  A    between atoms: _230  and  _231
REMARK   98  A    between atoms: _234  and  _236
REMARK   99  A    between atoms: _236  and  _237
REMARK  100  A    between atoms: _239  and  _241
REMARK  101  A    between atoms: _241  and  _242
REMARK  102  A    between atoms: _241  and  _244
REMARK  103  A    between atoms: _244  and  _245
REMARK  104  A    between atoms: _245  and  _246
REMARK  105  A    between atoms: _246  and  _247
REMARK  106  A    between atoms: _256  and  _258
REMARK  107  A    between atoms: _258  and  _259
REMARK  108  A    between atoms: _258  and  _261
REMARK  109  A    between atoms: _261  and  _262
REMARK  110  A    between atoms: _267  and  _269
REMARK  111  A    between atoms: _269  and  _270
REMARK  112  A    between atoms: _269  and  _272
REMARK  113  A    between atoms: _272  and  _273
REMARK  114  A    between atoms: _273  and  _274
REMARK  115  A    between atoms: _274  and  _275
REMARK  116  A    between atoms: _284  and  _286
REMARK  117  A    between atoms: _286  and  _287
REMARK  118  A    between atoms: _286  and  _289
REMARK  119  A    between atoms: _289  and  _290
REMARK  120  A    between atoms: _293  and  _295
REMARK  121  A    between atoms: _295  and  _296
REMARK  122  A    between atoms: _295  and  _298
REMARK  123  A    between atoms: _298  and  _299
REMARK  124  A    between atoms: _302  and  _304
REMARK  125  A    between atoms: _304  and  _305
REMARK  126  A    between atoms: _304  and  _307
REMARK  127  A    between atoms: _307  and  _308
REMARK  128  A    between atoms: _311  and  _313
REMARK  129  A    between atoms: _313  and  _314
REMARK  130  A    between atoms: _313  and  _316
REMARK  131  A    between atoms: _316  and  _317
REMARK  132  A    between atoms: _320  and  _322
REMARK  133  A    between atoms: _322  and  _323
REMARK  134  A    between atoms: _322  and  _325
REMARK  135  A    between atoms: _325  and  _326
REMARK  136  A    between atoms: _329  and  _331
REMARK  137  A    between atoms: _331  and  _332
REMARK  138  A    between atoms: _334  and  _336
REMARK  139  A    between atoms: _336  and  _337
REMARK  140  A    between atoms: _340  and  _342
REMARK  141  A    between atoms: _342  and  _343
REMARK  142  A    between atoms: _342  and  _345
REMARK  143  A    between atoms: _345  and  _346
REMARK  144  A    between atoms: _349  and  _351
REMARK  145  A    between atoms: _351  and  _352
REMARK  146  A    between atoms: _351  and  _354
REMARK  147  A    between atoms: _354  and  _355
REMARK  148  A    between atoms: _358  and  _360
REMARK  149  A    between atoms: _360  and  _361
REMARK  150  A    between atoms: _360  and  _363
REMARK  151  A    between atoms: _363  and  _364
REMARK  152  A    between atoms: _367  and  _369
REMARK  153  A    between atoms: _369  and  _370
REMARK  154  A    between atoms: _369  and  _372
REMARK  155  A    between atoms: _375  and  _377
REMARK  156  A    between atoms: _377  and  _378
REMARK  157  A    between atoms: _377  and  _380
REMARK  158  A    between atoms: _380  and  _381
REMARK  159  A    between atoms: _381  and  _382
REMARK  160  A    between atoms: _382  and  _383
REMARK  161  A    between atoms: _383  and  _384
REMARK  162  A    between atoms: _388  and  _390
REMARK  163  A    between atoms: _390  and  _391
REMARK  164  A    between atoms: _390  and  _393
REMARK  165  A    between atoms: _393  and  _394
REMARK  166  A    between atoms: _394  and  _395
REMARK  167  A    between atoms: _397  and  _399
REMARK  168  A    between atoms: _399  and  _400
REMARK  169  A    between atoms: _399  and  _402
REMARK  170  A    between atoms: _402  and  _403
REMARK  171  A    between atoms: _406  and  _408
REMARK  172  A    between atoms: _408  and  _409
REMARK  173  A    between atoms: _411  and  _413
REMARK  174  A    between atoms: _413  and  _414
REMARK  175  A    between atoms: _416  and  _418
REMARK  176  A    between atoms: _418  and  _419
REMARK  177  A    between atoms: _418  and  _421
REMARK  178  A    between atoms: _421  and  _422
REMARK  179  A    between atoms: _425  and  _427
REMARK  180  A    between atoms: _427  and  _428
REMARK  181  A    between atoms: _430  and  _432
REMARK  182  A    between atoms: _432  and  _433
REMARK  183  A    between atoms: _435  and  _437
REMARK  184  A    between atoms: _437  and  _438
REMARK  185  A    between atoms: _437  and  _440
REMARK  186  A    between atoms: _440  and  _441
REMARK  187  A    between atoms: _447  and  _449
REMARK  188  A    between atoms: _449  and  _450
REMARK  189  A    between atoms: _449  and  _452
REMARK  190  A    between atoms: _452  and  _453
REMARK  191  A    between atoms: _456  and  _458
REMARK  192  A    between atoms: _458  and  _459
REMARK  193  A    between atoms: _458  and  _461
REMARK  194  A    between atoms: _464  and  _466
REMARK  195  A    between atoms: _466  and  _467
REMARK  196  A    between atoms: _466  and  _469
REMARK  197  A    between atoms: _469  and  _470
REMARK  198  A    between atoms: _473  and  _475
REMARK  199  A    between atoms: _475  and  _476
REMARK  200  A    between atoms: _479  and  _480
REMARK  201  A    between atoms: _485  and  _487
REMARK  202  A    between atoms: _487  and  _488
REMARK  203  A    between atoms: _487  and  _490
REMARK  204  A    between atoms: _490  and  _491
REMARK  205  A    between atoms: _495  and  _496
REMARK  206  A    between atoms: _501  and  _503
REMARK  207  A    between atoms: _503  and  _504
REMARK  208  A    between atoms: _503  and  _506
REMARK  209  A    between atoms: _509  and  _511
REMARK  210  A    between atoms: _511  and  _512
REMARK  211  A    between atoms: _511  and  _514
REMARK  212  A    between atoms: _514  and  _515
REMARK  213  A    between atoms: _520  and  _522
REMARK  214  A    between atoms: _522  and  _523
REMARK  215  A    between atoms: _522  and  _525
REMARK  216  A    between atoms: _525  and  _526
REMARK  217  A    between atoms: _529  and  _531
REMARK  218  A    between atoms: _531  and  _532
REMARK  219  A    between atoms: _531  and  _534
REMARK  220  A    between atoms: _534  and  _535
REMARK  221  A    between atoms: _538  and  _540
REMARK  222  A    between atoms: _540  and  _541
REMARK  223  A    between atoms: _543  and  _545
REMARK  224  A    between atoms: _545  and  _546
REMARK  225  A    between atoms: _545  and  _548
REMARK  226  A    between atoms: _548  and  _549
REMARK  227  A    between atoms: _549  and  _550
REMARK  228  A    between atoms: _550  and  _551
REMARK  229  A    between atoms: _560  and  _562
REMARK  230  A    between atoms: _562  and  _563
REMARK  231  A    between atoms: _562  and  _565
REMARK  232  A    between atoms: _565  and  _566
REMARK                            x       y       z     vdW  Elec       q    Type
REMARK                         _______ _______ _______ _____ _____    ______ ____
ROOT
ATOM      1  C   GLY A   5      21.437  19.493  17.364  0.00  0.00    +0.243 C 
ATOM      2  N   ILE A   6      20.209  19.156  17.740  0.00  0.00    -0.297 N 
ATOM      3  H   ILE A   6      19.474  19.878  17.884  0.00  0.00    +0.150 HD
ATOM      4  O   GLY A   5      22.355  18.690  17.271  0.00  0.00    -0.273 OA
ENDROOT
BRANCH   1   5
ATOM      5  CA  GLY A   5      21.732  20.968  17.124  0.00  0.00    +0.176 C 
BRANCH   5   8
ATOM      6  C   GLY A   4      23.541  22.220  16.060  0.00  0.00    +0.243 C 
ATOM      7  O   GLY A   4      23.186  23.288  16.546  0.00  0.00    -0.273 OA
ATOM      8  N   GLY A   5      22.953  21.062  16.332  0.00  0.00    -0.295 N 
ATOM      9  H   GLY A   5      23.380  20.187  15.966  0.00  0.00    +0.150 HD
BRANCH   6  10
ATOM     10  CA  GLY A   4      24.684  22.105  15.076  0.00  0.00    +0.176 C 
BRANCH  10  12
ATOM     11  C   ILE A   3      25.099  23.462  13.138  0.00  0.00    +0.241 C 
ATOM     12  N   GLY A   4      25.005  23.387  14.458  0.00  0.00    -0.295 N 
ATOM     13  H   GLY A   4      25.158  24.231  15.046  0.00  0.00    +0.150 HD
ATOM     14  O   ILE A   3      24.842  22.530  12.381  0.00  0.00    -0.273 OA
BRANCH  11  15
ATOM     15  CA  ILE A   3      25.579  24.795  12.576  0.00  0.00    +0.149 C 
BRANCH  15  18
ATOM     16  C   MET A   2      27.605  25.115  11.338  0.00  0.00    +0.241 C 
ATOM     17  O   MET A   2      28.042  25.922  12.165  0.00  0.00    -0.273 OA
ATOM     18  N   ILE A   3      26.428  24.533  11.414  0.00  0.00    -0.297 N 
ATOM     19  H   ILE A   3      26.105  23.895  10.658  0.00  0.00    +0.150 HD
BRANCH  16  20
ATOM     20  CA  MET A   2      28.451  24.772  10.112  0.00  0.00    +0.149 C 
BRANCH  20  22
ATOM     21  C   LYS A   1      28.585  26.481   8.350  0.00  0.00    +0.238 C 
ATOM     22  N   MET A   2      28.977  25.994   9.520  0.00  0.00    -0.297 N 
ATOM     23  H   MET A   2      29.705  26.517  10.047  0.00  0.00    +0.150 HD
ATOM     24  O   LYS A   1      27.824  25.896   7.590  0.00  0.00    -0.274 OA
BRANCH  21  25
ATOM     25  CA  LYS A   1      29.075  27.860   7.939  0.00  0.00    +0.145 C 
BRANCH  25  26
ATOM     26  N   LYS A   1      29.166  27.936   6.491  0.00  0.00    -0.238 NA
ATOM     27  H   LYS A   1      28.488  27.405   5.908  0.00  0.00    +0.142 HD
ENDBRANCH  25  26
BRANCH  25  28
ATOM     28  CB  LYS A   1      28.055  28.906   8.404  0.00  0.00    +0.026 C 
BRANCH  28  29
ATOM     29  CG  LYS A   1      27.963  29.024   9.921  0.00  0.00    -0.000 C 
BRANCH  29  30
ATOM     30  CD  LYS A   1      27.025  30.170  10.272  0.00  0.00    -0.024 C 
BRANCH  30  31
ATOM     31  CE  LYS A   1      26.844  30.295  11.778  0.00  0.00    -0.086 C 
BRANCH  31  32
ATOM     32  NZ  LYS A   1      27.898  31.092  12.433  0.00  0.00    +0.380 N 
ATOM     33  HZ1 LYS A   1      27.713  31.136  13.455  0.00  0.00    -0.089 HD
ATOM     34  HZ2 LYS A   1      28.823  30.646  12.266  0.00  0.00    -0.089 HD
ATOM     35  HZ3 LYS A   1      27.899  32.054  12.038  0.00  0.00    -0.089 HD
ENDBRANCH  31  32
ENDBRANCH  30  31
ENDBRANCH  29  30
ENDBRANCH  28  29
ENDBRANCH  25  28
ENDBRANCH  21  25
ENDBRANCH  20  22
BRANCH  20  36
ATOM     36  CB  MET A   2      29.568  23.808  10.523  0.00  0.00    +0.041 C 
BRANCH  36  37
ATOM     37  CG  MET A   2      30.287  23.183   9.318  0.00  0.00    +0.060 C 
BRANCH  37  38
ATOM     38  SD  MET A   2      29.338  21.796   8.662  0.00  0.00    -0.139 S 
ATOM     39  CE  MET A   2      29.830  20.474   9.785  0.00  0.00    +0.069 C 
ENDBRANCH  37  38
ENDBRANCH  36  37
ENDBRANCH  20  36
ENDBRANCH  16  20
ENDBRANCH  15  18
BRANCH  15  40
ATOM     40  CB  ILE A   3      24.380  25.687  12.260  0.00  0.00    +0.027 C 
ATOM     41  CG2 ILE A   3      24.816  27.102  11.907  0.00  0.00    +0.002 C 
BRANCH  40  42
ATOM     42  CG1 ILE A   3      23.464  25.106  11.173  0.00  0.00    +0.002 C 
ATOM     43  CD1 ILE A   3      22.245  25.992  10.920  0.00  0.00    +0.000 C 
ENDBRANCH  40  42
ENDBRANCH  15  40
ENDBRANCH  11  15
ENDBRANCH  10  12
ENDBRANCH   6  10
ENDBRANCH   5   8
ENDBRANCH   1   5
BRANCH   2  44
ATOM     44  CA  ILE A   6      19.925  17.741  17.944  0.00  0.00    +0.149 C 
BRANCH  44  45
ATOM     45  C   ILE A   6      20.228  16.989  16.653  0.00  0.00    +0.241 C 
ATOM     46  N   GLY A   7      20.945  15.874  16.702  0.00  0.00    -0.295 N 
ATOM     47  H   GLY A   7      21.329  15.508  17.597  0.00  0.00    +0.150 HD
ATOM     48  O   ILE A   6      19.830  17.425  15.561  0.00  0.00    -0.273 OA
BRANCH  46  49
ATOM     49  CA  GLY A   7      21.166  15.188  15.432  0.00  0.00    +0.176 C 
BRANCH  49  50
ATOM     50  C   GLY A   7      22.464  15.634  14.798  0.00  0.00    +0.243 C 
ATOM     51  N   GLY A   8      23.200  16.602  15.342  0.00  0.00    -0.295 N 
ATOM     52  H   GLY A   8      22.890  17.152  16.169  0.00  0.00    +0.150 HD
ATOM     53  O   GLY A   7      22.857  15.072  13.772  0.00  0.00    -0.273 OA
BRANCH  51  54
ATOM     54  CA  GLY A   8      24.492  16.826  14.670  0.00  0.00    +0.176 C 
BRANCH  54  55
ATOM     55  C   GLY A   8      24.555  18.151  13.929  0.00  0.00    +0.243 C 
ATOM     56  O   GLY A   8      23.713  19.015  14.161  0.00  0.00    -0.273 OA
ATOM     57  N   PHE A   9      25.539  18.304  13.051  0.00  0.00    -0.297 N 
ATOM     58  H   PHE A   9      26.187  17.507  12.885  0.00  0.00    +0.150 HD
BRANCH  57  59
ATOM     59  CA  PHE A   9      25.749  19.534  12.314  0.00  0.00    +0.153 C 
BRANCH  59  60
ATOM     60  C   PHE A   9      25.330  19.460  10.856  0.00  0.00    +0.241 C 
ATOM     61  N   ILE A  10      24.961  20.605  10.302  0.00  0.00    -0.298 N 
ATOM     62  H   ILE A  10      24.835  21.453  10.891  0.00  0.00    +0.150 HD
ATOM     63  O   PHE A   9      25.381  18.382  10.269  0.00  0.00    -0.273 OA
BRANCH  61  64
ATOM     64  CA  ILE A  10      24.732  20.674   8.866  0.00  0.00    +0.137 C 
BRANCH  64  65
ATOM     65  CB  ILE A  10      23.270  20.889   8.463  0.00  0.00    +0.026 C 
ATOM     66  CG2 ILE A  10      22.453  19.646   8.848  0.00  0.00    +0.002 C 
BRANCH  65  67
ATOM     67  CG1 ILE A  10      22.628  22.174   9.011  0.00  0.00    +0.002 C 
ATOM     68  CD1 ILE A  10      21.298  22.516   8.340  0.00  0.00    +0.000 C 
ENDBRANCH  65  67
ENDBRANCH  64  65
BRANCH  64  69
ATOM     69  C   ILE A  10      25.543  21.848   8.314  0.00  0.00    +0.227 C 
ATOM     70  O   ILE A  10      25.831  22.806   9.031  0.00  0.00    -0.286 OA
ENDBRANCH  64  69
ENDBRANCH  61  64
ENDBRANCH  59  60
BRANCH  59  71
ATOM     71  CB  PHE A   9      27.239  19.883  12.273  0.00  0.00    +0.055 C 
BRANCH  71  72
ATOM     72  CG  PHE A   9      27.716  20.423  13.608  0.00  0.00    -0.020 A 
ATOM     73  CD2 PHE A   9      28.003  19.510  14.620  0.00  0.00    -0.004 A 
ATOM     74  CE2 PHE A   9      28.445  19.978  15.842  0.00  0.00    -0.000 A 
ATOM     75  CZ  PHE A   9      28.614  21.330  16.037  0.00  0.00    -0.000 A 
ATOM     76  CE1 PHE A   9      28.324  22.258  15.038  0.00  0.00    -0.000 A 
ATOM     77  CD1 PHE A   9      27.890  21.765  13.818  0.00  0.00    -0.004 A 
ENDBRANCH  71  72
ENDBRANCH  59  71
ENDBRANCH  57  59
ENDBRANCH  54  55
ENDBRANCH  51  54
ENDBRANCH  49  50
ENDBRANCH  46  49
ENDBRANCH  44  45
BRANCH  44  78
ATOM     78  CB  ILE A   6      18.452  17.598  18.340  0.00  0.00    +0.027 C 
ATOM     79  CG2 ILE A   6      17.967  16.170  18.109  0.00  0.00    +0.002 C 
BRANCH  78  80
ATOM     80  CG1 ILE A   6      18.139  18.026  19.775  0.00  0.00    +0.002 C 
ATOM     81  CD1 ILE A   6      18.871  17.162  20.783  0.00  0.00    +0.000 C 
ENDBRANCH  78  80
ENDBRANCH  44  78
ENDBRANCH   2  44
TORSDOF 36
REMARK  Name = ../refined-set-2016/4zls/4zls_pocket.pdb
REMARK  232 active torsions:
REMARK  status: ('A' for Active; 'I' for Inactive)
REMARK    1  A    between atoms: _1  and  _3
REMARK    2  A    between atoms: _3  and  _4
REMARK    3  A    between atoms: _3  and  _6
REMARK    4  A    between atoms: _6  and  _7
REMARK    5  A    between atoms: _7  and  _8
REMARK    6  A    between atoms: _8  and  _9
REMARK    7  A    between atoms: _18  and  _20
REMARK    8  A    between atoms: _20  and  _21
REMARK    9  A    between atoms: _20  and  _23
REMARK   10  A    between atoms: _23  and  _24
REMARK   11  A    between atoms: _27  and  _29
REMARK   12  A    between atoms: _29  and  _30
REMARK   13  A    between atoms: _29  and  _32
REMARK   14  A    between atoms: _32  and  _33
REMARK   15  A    between atoms: _36  and  _38
REMARK   16  A    between atoms: _38  and  _39
REMARK   17  A    between atoms: _38  and  _41
REMARK   18  A    between atoms: _41  and  _42
REMARK   19  A    between atoms: _45  and  _47
REMARK   20  A    between atoms: _47  and  _48
REMARK   21  A    between atoms: _47  and  _50
REMARK   22  A    between atoms: _50  and  _51
REMARK   23  A    between atoms: _54  and  _56
REMARK   24  A    between atoms: _56  and  _57
REMARK   25  A    between atoms: _59  and  _61
REMARK   26  A    between atoms: _61  and  _62
REMARK   27  A    between atoms: _65  and  _67
REMARK   28  A    between atoms: _67  and  _68
REMARK   29  A    between atoms: _67  and  _70
REMARK   30  A    between atoms: _70  and  _71
REMARK   31  A    between atoms: _74  and  _76
REMARK   32  A    between atoms: _76  and  _77
REMARK   33  A    between atoms: _76  and  _79
REMARK   34  A    between atoms: _79  and  _80
REMARK   35  A    between atoms: _83  and  _85
REMARK   36  A    between atoms: _85  and  _86
REMARK   37  A    between atoms: _85  and  _88
REMARK   38  A    between atoms: _88  and  _89
REMARK   39  A    between atoms: _92  and  _94
REMARK   40  A    between atoms: _94  and  _95
REMARK   41  A    between atoms: _94  and  _97
REMARK   42  A    between atoms: _100  and  _102
REMARK   43  A    between atoms: _102  and  _103
REMARK   44  A    between atoms: _102  and  _105
REMARK   45  A    between atoms: _105  and  _106
REMARK   46  A    between atoms: _106  and  _107
REMARK   47  A    between atoms: _107  and  _108
REMARK   48  A    between atoms: _108  and  _109
REMARK   49  A    between atoms: _113  and  _115
REMARK   50  A    between atoms: _115  and  _116
REMARK   51  A    between atoms: _115  and  _118
REMARK   52  A    between atoms: _118  and  _119
REMARK   53  A    between atoms: _119  and  _120
REMARK   54  A    between atoms: _122  and  _124
REMARK   55  A    between atoms: _124  and  _125
REMARK   56  A    between atoms: _124  and  _127
REMARK   57  A    between atoms: _127  and  _128
REMARK   58  A    between atoms: _131  and  _133
REMARK   59  A    between atoms: _133  and  _134
REMARK   60  A    between atoms: _136  and  _138
REMARK   61  A    between atoms: _138  and  _139
REMARK   62  A    between atoms: _141  and  _143
REMARK   63  A    between atoms: _143  and  _144
REMARK   64  A    between atoms: _143  and  _146
REMARK   65  A    between atoms: _146  and  _147
REMARK   66  A    between atoms: _150  and  _152
REMARK   67  A    between atoms: _152  and  _153
REMARK   68  A    between atoms: _155  and  _157
REMARK   69  A    between atoms: _157  and  _158
REMARK   70  A    between atoms: _160  and  _162
REMARK   71  A    between atoms: _162  and  _163
REMARK   72  A    between atoms: _162  and  _165
REMARK   73  A    between atoms: _165  and  _166
REMARK   74  A    between atoms: _172  and  _174
REMARK   75  A    between atoms: _174  and  _175
REMARK   76  A    between atoms: _174  and  _177
REMARK   77  A    between atoms: _177  and  _178
REMARK   78  A    between atoms: _181  and  _183
REMARK   79  A    between atoms: _183  and  _184
REMARK   80  A    between atoms: _183  and  _186
REMARK   81  A    between atoms: _186  and  _187
REMARK   82  A    between atoms: _190  and  _192
REMARK   83  A    between atoms: _192  and  _193
REMARK   84  A    between atoms: _192  and  _195
REMARK   85  A    between atoms: _195  and  _196
REMARK   86  A    between atoms: _200  and  _201
REMARK   87  A    between atoms: _206  and  _208
REMARK   88  A    between atoms: _208  and  _209
REMARK   89  A    between atoms: _208  and  _211
REMARK   90  A    between atoms: _214  and  _216
REMARK   91  A    between atoms: _216  and  _217
REMARK   92  A    between atoms: _216  and  _219
REMARK   93  A    between atoms: _219  and  _220
REMARK   94  A    between atoms: _225  and  _227
REMARK   95  A    between atoms: _227  and  _228
REMARK   96  A    between atoms: _227  and  _230
REMARK   97  A    between atoms: _230  and  _231
REMARK   98  A    between atoms: _234  and  _236
REMARK   99  A    between atoms: _236  and  _237
REMARK  100  A    between atoms: _239  and  _241
REMARK  101  A    between atoms: _241  and  _242
REMARK  102  A    between atoms: _241  and  _244
REMARK  103  A    between atoms: _244  and  _245
REMARK  104  A    between atoms: _245  and  _246
REMARK  105  A    between atoms: _246  and  _247
REMARK  106  A    between atoms: _256  and  _258
REMARK  107  A    between atoms: _258  and  _259
REMARK  108  A    between atoms: _258  and  _261
REMARK  109  A    between atoms: _261  and  _262
REMARK  110  A    between atoms: _267  and  _269
REMARK  111  A    between atoms: _269  and  _270
REMARK  112  A    between atoms: _269  and  _272
REMARK  113  A    between atoms: _272  and  _273
REMARK  114  A    between atoms: _273  and  _274
REMARK  115  A    between atoms: _274  and  _275
REMARK  116  A    between atoms: _284  and  _286
REMARK  117  A    between atoms: _286  and  _287
REMARK  118  A    between atoms: _286  and  _289
REMARK  119  A    between atoms: _289  and  _290
REMARK  120  A    between atoms: _293  and  _295
REMARK  121  A    between atoms: _295  and  _296
REMARK  122  A    between atoms: _295  and  _298
REMARK  123  A    between atoms: _298  and  _299
REMARK  124  A    between atoms: _302  and  _304
REMARK  125  A    between atoms: _304  and  _305
REMARK  126  A    between atoms: _304  and  _307
REMARK  127  A    between atoms: _307  and  _308
REMARK  128  A    between atoms: _311  and  _313
REMARK  129  A    between atoms: _313  and  _314
REMARK  130  A    between atoms: _313  and  _316
REMARK  131  A    between atoms: _316  and  _317
REMARK  132  A    between atoms: _320  and  _322
REMARK  133  A    between atoms: _322  and  _323
REMARK  134  A    between atoms: _322  and  _325
REMARK  135  A    between atoms: _325  and  _326
REMARK  136  A    between atoms: _329  and  _331
REMARK  137  A    between atoms: _331  and  _332
REMARK  138  A    between atoms: _334  and  _336
REMARK  139  A    between atoms: _336  and  _337
REMARK  140  A    between atoms: _340  and  _342
REMARK  141  A    between atoms: _342  and  _343
REMARK  142  A    between atoms: _342  and  _345
REMARK  143  A    between atoms: _345  and  _346
REMARK  144  A    between atoms: _349  and  _351
REMARK  145  A    between atoms: _351  and  _352
REMARK  146  A    between atoms: _351  and  _354
REMARK  147  A    between atoms: _354  and  _355
REMARK  148  A    between atoms: _358  and  _360
REMARK  149  A    between atoms: _360  and  _361
REMARK  150  A    between atoms: _360  and  _363
REMARK  151  A    between atoms: _363  and  _364
REMARK  152  A    between atoms: _367  and  _369
REMARK  153  A    between atoms: _369  and  _370
REMARK  154  A    between atoms: _369  and  _372
REMARK  155  A    between atoms: _375  and  _377
REMARK  156  A    between atoms: _377  and  _378
REMARK  157  A    between atoms: _377  and  _380
REMARK  158  A    between atoms: _380  and  _381
REMARK  159  A    between atoms: _381  and  _382
REMARK  160  A    between atoms: _382  and  _383
REMARK  161  A    between atoms: _383  and  _384
REMARK  162  A    between atoms: _388  and  _390
REMARK  163  A    between atoms: _390  and  _391
REMARK  164  A    between atoms: _390  and  _393
REMARK  165  A    between atoms: _393  and  _394
REMARK  166  A    between atoms: _394  and  _395
REMARK  167  A    between atoms: _397  and  _399
REMARK  168  A    between atoms: _399  and  _400
REMARK  169  A    between atoms: _399  and  _402
REMARK  170  A    between atoms: _402  and  _403
REMARK  171  A    between atoms: _406  and  _408
REMARK  172  A    between atoms: _408  and  _409
REMARK  173  A    between atoms: _411  and  _413
REMARK  174  A    between atoms: _413  and  _414
REMARK  175  A    between atoms: _416  and  _418
REMARK  176  A    between atoms: _418  and  _419
REMARK  177  A    between atoms: _418  and  _421
REMARK  178  A    between atoms: _421  and  _422
REMARK  179  A    between atoms: _425  and  _427
REMARK  180  A    between atoms: _427  and  _428
REMARK  181  A    between atoms: _430  and  _432
REMARK  182  A    between atoms: _432  and  _433
REMARK  183  A    between atoms: _435  and  _437
REMARK  184  A    between atoms: _437  and  _438
REMARK  185  A    between atoms: _437  and  _440
REMARK  186  A    between atoms: _440  and  _441
REMARK  187  A    between atoms: _447  and  _449
REMARK  188  A    between atoms: _449  and  _450
REMARK  189  A    between atoms: _449  and  _452
REMARK  190  A    between atoms: _452  and  _453
REMARK  191  A    between atoms: _456  and  _458
REMARK  192  A    between atoms: _458  and  _459
REMARK  193  A    between atoms: _458  and  _461
REMARK  194  A    between atoms: _464  and  _466
REMARK  195  A    between atoms: _466  and  _467
REMARK  196  A    between atoms: _466  and  _469
REMARK  197  A    between atoms: _469  and  _470
REMARK  198  A    between atoms: _473  and  _475
REMARK  199  A    between atoms: _475  and  _476
REMARK  200  A    between atoms: _479  and  _480
REMARK  201  A    between atoms: _485  and  _487
REMARK  202  A    between atoms: _487  and  _488
REMARK  203  A    between atoms: _487  and  _490
REMARK  204  A    between atoms: _490  and  _491
REMARK  205  A    between atoms: _495  and  _496
REMARK  206  A    between atoms: _501  and  _503
REMARK  207  A    between atoms: _503  and  _504
REMARK  208  A    between atoms: _503  and  _506
REMARK  209  A    between atoms: _509  and  _511
REMARK  210  A    between atoms: _511  and  _512
REMARK  211  A    between atoms: _511  and  _514
REMARK  212  A    between atoms: _514  and  _515
REMARK  213  A    between atoms: _520  and  _522
REMARK  214  A    between atoms: _522  and  _523
REMARK  215  A    between atoms: _522  and  _525
REMARK  216  A    between atoms: _525  and  _526
REMARK  217  A    between atoms: _529  and  _531
REMARK  218  A    between atoms: _531  and  _532
REMARK  219  A    between atoms: _531  and  _534
REMARK  220  A    between atoms: _534  and  _535
REMARK  221  A    between atoms: _538  and  _540
REMARK  222  A    between atoms: _540  and  _541
REMARK  223  A    between atoms: _543  and  _545
REMARK  224  A    between atoms: _545  and  _546
REMARK  225  A    between atoms: _545  and  _548
REMARK  226  A    between atoms: _548  and  _549
REMARK  227  A    between atoms: _549  and  _550
REMARK  228  A    between atoms: _550  and  _551
REMARK  229  A    between atoms: _560  and  _562
REMARK  230  A    between atoms: _562  and  _563
REMARK  231  A    between atoms: _562  and  _565
REMARK  232  A    between atoms: _565  and  _566
REMARK                            x       y       z     vdW  Elec       q    Type
REMARK                         _______ _______ _______ _____ _____    ______ ____
ROOT
ATOM      1  CA  LEU A   1      21.469  30.822   6.757  0.00  0.00    +0.133 C 
ENDROOT
BRANCH   1   2
ATOM      2  N   LEU A   1      20.717  32.015   7.132  0.00  0.00    -0.239 NA
ATOM      3  H   LEU A   1      20.041  31.978   7.922  0.00  0.00    +0.142 HD
ENDBRANCH   1   2
BRANCH   1   4
ATOM      4  C   LEU A   1      20.575  29.939   5.877  0.00  0.00    +0.224 C 
ATOM      5  O   LEU A   1      19.405  29.792   6.209  0.00  0.00    -0.287 OA
ENDBRANCH   1   4
BRANCH   1   6
ATOM      6  CB  LEU A   1      21.874  30.032   8.001  0.00  0.00    +0.025 C 
BRANCH   6   7
ATOM      7  CG  LEU A   1      22.572  30.865   9.084  0.00  0.00    +0.002 C 
ATOM      8  CD2 LEU A   1      22.942  29.933  10.237  0.00  0.00    +0.000 C 
ATOM      9  CD1 LEU A   1      23.770  31.605   8.506  0.00  0.00    +0.000 C 
ENDBRANCH   6   7
ENDBRANCH   1   6
TORSDOF 4
REMARK  Name = ../refined-set-2016/4zls/4zls_pocket.pdb
REMARK  232 active torsions:
REMARK  status: ('A' for Active; 'I' for Inactive)
REMARK    1  A    between atoms: _1  and  _3
REMARK    2  A    between atoms: _3  and  _4
REMARK    3  A    between atoms: _3  and  _6
REMARK    4  A    between atoms: _6  and  _7
REMARK    5  A    between atoms: _7  and  _8
REMARK    6  A    between atoms: _8  and  _9
REMARK    7  A    between atoms: _18  and  _20
REMARK    8  A    between atoms: _20  and  _21
REMARK    9  A    between atoms: _20  and  _23
REMARK   10  A    between atoms: _23  and  _24
REMARK   11  A    between atoms: _27  and  _29
REMARK   12  A    between atoms: _29  and  _30
REMARK   13  A    between atoms: _29  and  _32
REMARK   14  A    between atoms: _32  and  _33
REMARK   15  A    between atoms: _36  and  _38
REMARK   16  A    between atoms: _38  and  _39
REMARK   17  A    between atoms: _38  and  _41
REMARK   18  A    between atoms: _41  and  _42
REMARK   19  A    between atoms: _45  and  _47
REMARK   20  A    between atoms: _47  and  _48
REMARK   21  A    between atoms: _47  and  _50
REMARK   22  A    between atoms: _50  and  _51
REMARK   23  A    between atoms: _54  and  _56
REMARK   24  A    between atoms: _56  and  _57
REMARK   25  A    between atoms: _59  and  _61
REMARK   26  A    between atoms: _61  and  _62
REMARK   27  A    between atoms: _65  and  _67
REMARK   28  A    between atoms: _67  and  _68
REMARK   29  A    between atoms: _67  and  _70
REMARK   30  A    between atoms: _70  and  _71
REMARK   31  A    between atoms: _74  and  _76
REMARK   32  A    between atoms: _76  and  _77
REMARK   33  A    between atoms: _76  and  _79
REMARK   34  A    between atoms: _79  and  _80
REMARK   35  A    between atoms: _83  and  _85
REMARK   36  A    between atoms: _85  and  _86
REMARK   37  A    between atoms: _85  and  _88
REMARK   38  A    between atoms: _88  and  _89
REMARK   39  A    between atoms: _92  and  _94
REMARK   40  A    between atoms: _94  and  _95
REMARK   41  A    between atoms: _94  and  _97
REMARK   42  A    between atoms: _100  and  _102
REMARK   43  A    between atoms: _102  and  _103
REMARK   44  A    between atoms: _102  and  _105
REMARK   45  A    between atoms: _105  and  _106
REMARK   46  A    between atoms: _106  and  _107
REMARK   47  A    between atoms: _107  and  _108
REMARK   48  A    between atoms: _108  and  _109
REMARK   49  A    between atoms: _113  and  _115
REMARK   50  A    between atoms: _115  and  _116
REMARK   51  A    between atoms: _115  and  _118
REMARK   52  A    between atoms: _118  and  _119
REMARK   53  A    between atoms: _119  and  _120
REMARK   54  A    between atoms: _122  and  _124
REMARK   55  A    between atoms: _124  and  _125
REMARK   56  A    between atoms: _124  and  _127
REMARK   57  A    between atoms: _127  and  _128
REMARK   58  A    between atoms: _131  and  _133
REMARK   59  A    between atoms: _133  and  _134
REMARK   60  A    between atoms: _136  and  _138
REMARK   61  A    between atoms: _138  and  _139
REMARK   62  A    between atoms: _141  and  _143
REMARK   63  A    between atoms: _143  and  _144
REMARK   64  A    between atoms: _143  and  _146
REMARK   65  A    between atoms: _146  and  _147
REMARK   66  A    between atoms: _150  and  _152
REMARK   67  A    between atoms: _152  and  _153
REMARK   68  A    between atoms: _155  and  _157
REMARK   69  A    between atoms: _157  and  _158
REMARK   70  A    between atoms: _160  and  _162
REMARK   71  A    between atoms: _162  and  _163
REMARK   72  A    between atoms: _162  and  _165
REMARK   73  A    between atoms: _165  and  _166
REMARK   74  A    between atoms: _172  and  _174
REMARK   75  A    between atoms: _174  and  _175
REMARK   76  A    between atoms: _174  and  _177
REMARK   77  A    between atoms: _177  and  _178
REMARK   78  A    between atoms: _181  and  _183
REMARK   79  A    between atoms: _183  and  _184
REMARK   80  A    between atoms: _183  and  _186
REMARK   81  A    between atoms: _186  and  _187
REMARK   82  A    between atoms: _190  and  _192
REMARK   83  A    between atoms: _192  and  _193
REMARK   84  A    between atoms: _192  and  _195
REMARK   85  A    between atoms: _195  and  _196
REMARK   86  A    between atoms: _200  and  _201
REMARK   87  A    between atoms: _206  and  _208
REMARK   88  A    between atoms: _208  and  _209
REMARK   89  A    between atoms: _208  and  _211
REMARK   90  A    between atoms: _214  and  _216
REMARK   91  A    between atoms: _216  and  _217
REMARK   92  A    between atoms: _216  and  _219
REMARK   93  A    between atoms: _219  and  _220
REMARK   94  A    between atoms: _225  and  _227
REMARK   95  A    between atoms: _227  and  _228
REMARK   96  A    between atoms: _227  and  _230
REMARK   97  A    between atoms: _230  and  _231
REMARK   98  A    between atoms: _234  and  _236
REMARK   99  A    between atoms: _236  and  _237
REMARK  100  A    between atoms: _239  and  _241
REMARK  101  A    between atoms: _241  and  _242
REMARK  102  A    between atoms: _241  and  _244
REMARK  103  A    between atoms: _244  and  _245
REMARK  104  A    between atoms: _245  and  _246
REMARK  105  A    between atoms: _246  and  _247
REMARK  106  A    between atoms: _256  and  _258
REMARK  107  A    between atoms: _258  and  _259
REMARK  108  A    between atoms: _258  and  _261
REMARK  109  A    between atoms: _261  and  _262
REMARK  110  A    between atoms: _267  and  _269
REMARK  111  A    between atoms: _269  and  _270
REMARK  112  A    between atoms: _269  and  _272
REMARK  113  A    between atoms: _272  and  _273
REMARK  114  A    between atoms: _273  and  _274
REMARK  115  A    between atoms: _274  and  _275
REMARK  116  A    between atoms: _284  and  _286
REMARK  117  A    between atoms: _286  and  _287
REMARK  118  A    between atoms: _286  and  _289
REMARK  119  A    between atoms: _289  and  _290
REMARK  120  A    between atoms: _293  and  _295
REMARK  121  A    between atoms: _295  and  _296
REMARK  122  A    between atoms: _295  and  _298
REMARK  123  A    between atoms: _298  and  _299
REMARK  124  A    between atoms: _302  and  _304
REMARK  125  A    between atoms: _304  and  _305
REMARK  126  A    between atoms: _304  and  _307
REMARK  127  A    between atoms: _307  and  _308
REMARK  128  A    between atoms: _311  and  _313
REMARK  129  A    between atoms: _313  and  _314
REMARK  130  A    between atoms: _313  and  _316
REMARK  131  A    between atoms: _316  and  _317
REMARK  132  A    between atoms: _320  and  _322
REMARK  133  A    between atoms: _322  and  _323
REMARK  134  A    between atoms: _322  and  _325
REMARK  135  A    between atoms: _325  and  _326
REMARK  136  A    between atoms: _329  and  _331
REMARK  137  A    between atoms: _331  and  _332
REMARK  138  A    between atoms: _334  and  _336
REMARK  139  A    between atoms: _336  and  _337
REMARK  140  A    between atoms: _340  and  _342
REMARK  141  A    between atoms: _342  and  _343
REMARK  142  A    between atoms: _342  and  _345
REMARK  143  A    between atoms: _345  and  _346
REMARK  144  A    between atoms: _349  and  _351
REMARK  145  A    between atoms: _351  and  _352
REMARK  146  A    between atoms: _351  and  _354
REMARK  147  A    between atoms: _354  and  _355
REMARK  148  A    between atoms: _358  and  _360
REMARK  149  A    between atoms: _360  and  _361
REMARK  150  A    between atoms: _360  and  _363
REMARK  151  A    between atoms: _363  and  _364
REMARK  152  A    between atoms: _367  and  _369
REMARK  153  A    between atoms: _369  and  _370
REMARK  154  A    between atoms: _369  and  _372
REMARK  155  A    between atoms: _375  and  _377
REMARK  156  A    between atoms: _377  and  _378
REMARK  157  A    between atoms: _377  and  _380
REMARK  158  A    between atoms: _380  and  _381
REMARK  159  A    between atoms: _381  and  _382
REMARK  160  A    between atoms: _382  and  _383
REMARK  161  A    between atoms: _383  and  _384
REMARK  162  A    between atoms: _388  and  _390
REMARK  163  A    between atoms: _390  and  _391
REMARK  164  A    between atoms: _390  and  _393
REMARK  165  A    between atoms: _393  and  _394
REMARK  166  A    between atoms: _394  and  _395
REMARK  167  A    between atoms: _397  and  _399
REMARK  168  A    between atoms: _399  and  _400
REMARK  169  A    between atoms: _399  and  _402
REMARK  170  A    between atoms: _402  and  _403
REMARK  171  A    between atoms: _406  and  _408
REMARK  172  A    between atoms: _408  and  _409
REMARK  173  A    between atoms: _411  and  _413
REMARK  174  A    between atoms: _413  and  _414
REMARK  175  A    between atoms: _416  and  _418
REMARK  176  A    between atoms: _418  and  _419
REMARK  177  A    between atoms: _418  and  _421
REMARK  178  A    between atoms: _421  and  _422
REMARK  179  A    between atoms: _425  and  _427
REMARK  180  A    between atoms: _427  and  _428
REMARK  181  A    between atoms: _430  and  _432
REMARK  182  A    between atoms: _432  and  _433
REMARK  183  A    between atoms: _435  and  _437
REMARK  184  A    between atoms: _437  and  _438
REMARK  185  A    between atoms: _437  and  _440
REMARK  186  A    between atoms: _440  and  _441
REMARK  187  A    between atoms: _447  and  _449
REMARK  188  A    between atoms: _449  and  _450
REMARK  189  A    between atoms: _449  and  _452
REMARK  190  A    between atoms: _452  and  _453
REMARK  191  A    between atoms: _456  and  _458
REMARK  192  A    between atoms: _458  and  _459
REMARK  193  A    between atoms: _458  and  _461
REMARK  194  A    between atoms: _464  and  _466
REMARK  195  A    between atoms: _466  and  _467
REMARK  196  A    between atoms: _466  and  _469
REMARK  197  A    between atoms: _469  and  _470
REMARK  198  A    between atoms: _473  and  _475
REMARK  199  A    between atoms: _475  and  _476
REMARK  200  A    between atoms: _479  and  _480
REMARK  201  A    between atoms: _485  and  _487
REMARK  202  A    between atoms: _487  and  _488
REMARK  203  A    between atoms: _487  and  _490
REMARK  204  A    between atoms: _490  and  _491
REMARK  205  A    between atoms: _495  and  _496
REMARK  206  A    between atoms: _501  and  _503
REMARK  207  A    between atoms: _503  and  _504
REMARK  208  A    between atoms: _503  and  _506
REMARK  209  A    between atoms: _509  and  _511
REMARK  210  A    between atoms: _511  and  _512
REMARK  211  A    between atoms: _511  and  _514
REMARK  212  A    between atoms: _514  and  _515
REMARK  213  A    between atoms: _520  and  _522
REMARK  214  A    between atoms: _522  and  _523
REMARK  215  A    between atoms: _522  and  _525
REMARK  216  A    between atoms: _525  and  _526
REMARK  217  A    between atoms: _529  and  _531
REMARK  218  A    between atoms: _531  and  _532
REMARK  219  A    between atoms: _531  and  _534
REMARK  220  A    between atoms: _534  and  _535
REMARK  221  A    between atoms: _538  and  _540
REMARK  222  A    between atoms: _540  and  _541
REMARK  223  A    between atoms: _543  and  _545
REMARK  224  A    between atoms: _545  and  _546
REMARK  225  A    between atoms: _545  and  _548
REMARK  226  A    between atoms: _548  and  _549
REMARK  227  A    between atoms: _549  and  _550
REMARK  228  A    between atoms: _550  and  _551
REMARK  229  A    between atoms: _560  and  _562
REMARK  230  A    between atoms: _562  and  _563
REMARK  231  A    between atoms: _562  and  _565
REMARK  232  A    between atoms: _565  and  _566
REMARK                            x       y       z     vdW  Elec       q    Type
REMARK                         _______ _______ _______ _____ _____    ______ ____
ROOT
ATOM      1  CA  VAL A   3      11.868  23.405   8.537  0.00  0.00    +0.149 C 
ENDROOT
BRANCH   1   2
ATOM      2  C   VAL A   3      12.424  24.833   8.499  0.00  0.00    +0.241 C 
ATOM      3  O   VAL A   3      13.573  24.970   8.925  0.00  0.00    -0.273 OA
ATOM      4  N   ASN A   4      11.661  25.806   8.007  0.00  0.00    -0.297 N 
ATOM      5  H   ASN A   4      10.715  25.600   7.627  0.00  0.00    +0.150 HD
BRANCH   4   6
ATOM      6  CA  ASN A   4      12.186  27.181   8.013  0.00  0.00    +0.158 C 
BRANCH   6   7
ATOM      7  C   ASN A   4      12.088  27.700   9.450  0.00  0.00    +0.241 C 
ATOM      8  O   ASN A   4      11.054  27.588  10.092  0.00  0.00    -0.273 OA
ATOM      9  N   ILE A   5      13.175  28.292   9.931  0.00  0.00    -0.298 N 
ATOM     10  H   ILE A   5      13.979  28.451   9.290  0.00  0.00    +0.150 HD
BRANCH   9  11
ATOM     11  CA  ILE A   5      13.292  28.729  11.316  0.00  0.00    +0.137 C 
BRANCH  11  12
ATOM     12  CB  ILE A   5      14.391  27.891  12.005  0.00  0.00    +0.026 C 
ATOM     13  CG2 ILE A   5      14.792  28.503  13.333  0.00  0.00    +0.002 C 
BRANCH  12  14
ATOM     14  CG1 ILE A   5      13.939  26.429  12.156  0.00  0.00    +0.002 C 
ATOM     15  CD1 ILE A   5      15.040  25.406  12.286  0.00  0.00    +0.000 C 
ENDBRANCH  12  14
ENDBRANCH  11  12
BRANCH  11  16
ATOM     16  C   ILE A   5      13.626  30.208  11.378  0.00  0.00    +0.227 C 
ATOM     17  O   ILE A   5      14.639  30.612  10.796  0.00  0.00    -0.286 OA
ENDBRANCH  11  16
ENDBRANCH   9  11
ENDBRANCH   6   7
BRANCH   6  18
ATOM     18  CB  ASN A   4      11.443  28.117   7.066  0.00  0.00    +0.114 C 
BRANCH  18  19
ATOM     19  CG  ASN A   4      11.489  27.610   5.621  0.00  0.00    +0.222 C 
ATOM     20  OD1 ASN A   4      12.554  27.235   5.138  0.00  0.00    -0.275 OA
ATOM     21  ND2 ASN A   4      10.334  27.566   4.954  0.00  0.00    -0.329 N 
ATOM     22 HD21 ASN A   4       9.458  27.896   5.408  0.00  0.00    +0.145 HD
ATOM     23 HD22 ASN A   4      10.309  27.202   3.980  0.00  0.00    +0.145 HD
ENDBRANCH  18  19
ENDBRANCH   6  18
ENDBRANCH   4   6
ENDBRANCH   1   2
BRANCH   1  25
ATOM     24  C   PRO A   2      12.730  21.197   8.015  0.00  0.00    +0.241 C 
ATOM     25  N   VAL A   3      12.966  22.458   8.382  0.00  0.00    -0.297 N 
ATOM     26  H   VAL A   3      13.943  22.768   8.559  0.00  0.00    +0.150 HD
ATOM     27  O   PRO A   2      11.573  20.852   7.757  0.00  0.00    -0.273 OA
BRANCH  24  33
ATOM     28  C   THR A   1      15.709  21.616   7.226  0.00  0.00    +0.244 C 
ATOM     29  N   PRO A   2      15.198  20.841   8.174  0.00  0.00    -0.272 N 
ATOM     30  CD  PRO A   2      15.799  20.513   9.481  0.00  0.00    +0.094 C 
ATOM     31  CG  PRO A   2      14.663  19.841  10.198  0.00  0.00    +0.024 C 
ATOM     32  CB  PRO A   2      13.791  19.242   9.141  0.00  0.00    +0.031 C 
ATOM     33  CA  PRO A   2      13.887  20.214   7.954  0.00  0.00    +0.152 C 
ATOM     34  O   THR A   1      15.097  21.831   6.179  0.00  0.00    -0.273 OA
BRANCH  28  35
ATOM     35  CA  THR A   1      17.061  22.261   7.461  0.00  0.00    +0.172 C 
BRANCH  35  36
ATOM     36  N   THR A   1      17.736  22.341   6.164  0.00  0.00    -0.236 NA
ATOM     37  H   THR A   1      17.678  23.212   5.599  0.00  0.00    +0.142 HD
ENDBRANCH  35  36
BRANCH  35  38
ATOM     38  CB  THR A   1      16.866  23.640   8.094  0.00  0.00    +0.135 C 
ATOM     39  CG2 THR A   1      16.195  24.591   7.092  0.00  0.00    +0.034 C 
BRANCH  38  40
ATOM     40  OG1 THR A   1      15.987  23.559   9.222  0.00  0.00    -0.383 OA
ATOM     41  HG1 THR A   1      15.107  23.213   8.929  0.00  0.00    +0.210 HD
ENDBRANCH  38  40
ENDBRANCH  35  38
ENDBRANCH  28  35
ENDBRANCH  24  33
ENDBRANCH   1  25
BRANCH   1  42
ATOM     42  CB  VAL A   3      11.092  23.227   9.851  0.00  0.00    +0.027 C 
ATOM     43  CG2 VAL A   3      12.034  23.222  11.046  0.00  0.00    +0.002 C 
ATOM     44  CG1 VAL A   3      10.039  24.316  10.042  0.00  0.00    +0.002 C 
ENDBRANCH   1  42
TORSDOF 16
REMARK  Name = ../refined-set-2016/4zls/4zls_pocket.pdb
REMARK  232 active torsions:
REMARK  status: ('A' for Active; 'I' for Inactive)
REMARK    1  A    between atoms: _1  and  _3
REMARK    2  A    between atoms: _3  and  _4
REMARK    3  A    between atoms: _3  and  _6
REMARK    4  A    between atoms: _6  and  _7
REMARK    5  A    between atoms: _7  and  _8
REMARK    6  A    between atoms: _8  and  _9
REMARK    7  A    between atoms: _18  and  _20
REMARK    8  A    between atoms: _20  and  _21
REMARK    9  A    between atoms: _20  and  _23
REMARK   10  A    between atoms: _23  and  _24
REMARK   11  A    between atoms: _27  and  _29
REMARK   12  A    between atoms: _29  and  _30
REMARK   13  A    between atoms: _29  and  _32
REMARK   14  A    between atoms: _32  and  _33
REMARK   15  A    between atoms: _36  and  _38
REMARK   16  A    between atoms: _38  and  _39
REMARK   17  A    between atoms: _38  and  _41
REMARK   18  A    between atoms: _41  and  _42
REMARK   19  A    between atoms: _45  and  _47
REMARK   20  A    between atoms: _47  and  _48
REMARK   21  A    between atoms: _47  and  _50
REMARK   22  A    between atoms: _50  and  _51
REMARK   23  A    between atoms: _54  and  _56
REMARK   24  A    between atoms: _56  and  _57
REMARK   25  A    between atoms: _59  and  _61
REMARK   26  A    between atoms: _61  and  _62
REMARK   27  A    between atoms: _65  and  _67
REMARK   28  A    between atoms: _67  and  _68
REMARK   29  A    between atoms: _67  and  _70
REMARK   30  A    between atoms: _70  and  _71
REMARK   31  A    between atoms: _74  and  _76
REMARK   32  A    between atoms: _76  and  _77
REMARK   33  A    between atoms: _76  and  _79
REMARK   34  A    between atoms: _79  and  _80
REMARK   35  A    between atoms: _83  and  _85
REMARK   36  A    between atoms: _85  and  _86
REMARK   37  A    between atoms: _85  and  _88
REMARK   38  A    between atoms: _88  and  _89
REMARK   39  A    between atoms: _92  and  _94
REMARK   40  A    between atoms: _94  and  _95
REMARK   41  A    between atoms: _94  and  _97
REMARK   42  A    between atoms: _100  and  _102
REMARK   43  A    between atoms: _102  and  _103
REMARK   44  A    between atoms: _102  and  _105
REMARK   45  A    between atoms: _105  and  _106
REMARK   46  A    between atoms: _106  and  _107
REMARK   47  A    between atoms: _107  and  _108
REMARK   48  A    between atoms: _108  and  _109
REMARK   49  A    between atoms: _113  and  _115
REMARK   50  A    between atoms: _115  and  _116
REMARK   51  A    between atoms: _115  and  _118
REMARK   52  A    between atoms: _118  and  _119
REMARK   53  A    between atoms: _119  and  _120
REMARK   54  A    between atoms: _122  and  _124
REMARK   55  A    between atoms: _124  and  _125
REMARK   56  A    between atoms: _124  and  _127
REMARK   57  A    between atoms: _127  and  _128
REMARK   58  A    between atoms: _131  and  _133
REMARK   59  A    between atoms: _133  and  _134
REMARK   60  A    between atoms: _136  and  _138
REMARK   61  A    between atoms: _138  and  _139
REMARK   62  A    between atoms: _141  and  _143
REMARK   63  A    between atoms: _143  and  _144
REMARK   64  A    between atoms: _143  and  _146
REMARK   65  A    between atoms: _146  and  _147
REMARK   66  A    between atoms: _150  and  _152
REMARK   67  A    between atoms: _152  and  _153
REMARK   68  A    between atoms: _155  and  _157
REMARK   69  A    between atoms: _157  and  _158
REMARK   70  A    between atoms: _160  and  _162
REMARK   71  A    between atoms: _162  and  _163
REMARK   72  A    between atoms: _162  and  _165
REMARK   73  A    between atoms: _165  and  _166
REMARK   74  A    between atoms: _172  and  _174
REMARK   75  A    between atoms: _174  and  _175
REMARK   76  A    between atoms: _174  and  _177
REMARK   77  A    between atoms: _177  and  _178
REMARK   78  A    between atoms: _181  and  _183
REMARK   79  A    between atoms: _183  and  _184
REMARK   80  A    between atoms: _183  and  _186
REMARK   81  A    between atoms: _186  and  _187
REMARK   82  A    between atoms: _190  and  _192
REMARK   83  A    between atoms: _192  and  _193
REMARK   84  A    between atoms: _192  and  _195
REMARK   85  A    between atoms: _195  and  _196
REMARK   86  A    between atoms: _200  and  _201
REMARK   87  A    between atoms: _206  and  _208
REMARK   88  A    between atoms: _208  and  _209
REMARK   89  A    between atoms: _208  and  _211
REMARK   90  A    between atoms: _214  and  _216
REMARK   91  A    between atoms: _216  and  _217
REMARK   92  A    between atoms: _216  and  _219
REMARK   93  A    between atoms: _219  and  _220
REMARK   94  A    between atoms: _225  and  _227
REMARK   95  A    between atoms: _227  and  _228
REMARK   96  A    between atoms: _227  and  _230
REMARK   97  A    between atoms: _230  and  _231
REMARK   98  A    between atoms: _234  and  _236
REMARK   99  A    between atoms: _236  and  _237
REMARK  100  A    between atoms: _239  and  _241
REMARK  101  A    between atoms: _241  and  _242
REMARK  102  A    between atoms: _241  and  _244
REMARK  103  A    between atoms: _244  and  _245
REMARK  104  A    between atoms: _245  and  _246
REMARK  105  A    between atoms: _246  and  _247
REMARK  106  A    between atoms: _256  and  _258
REMARK  107  A    between atoms: _258  and  _259
REMARK  108  A    between atoms: _258  and  _261
REMARK  109  A    between atoms: _261  and  _262
REMARK  110  A    between atoms: _267  and  _269
REMARK  111  A    between atoms: _269  and  _270
REMARK  112  A    between atoms: _269  and  _272
REMARK  113  A    between atoms: _272  and  _273
REMARK  114  A    between atoms: _273  and  _274
REMARK  115  A    between atoms: _274  and  _275
REMARK  116  A    between atoms: _284  and  _286
REMARK  117  A    between atoms: _286  and  _287
REMARK  118  A    between atoms: _286  and  _289
REMARK  119  A    between atoms: _289  and  _290
REMARK  120  A    between atoms: _293  and  _295
REMARK  121  A    between atoms: _295  and  _296
REMARK  122  A    between atoms: _295  and  _298
REMARK  123  A    between atoms: _298  and  _299
REMARK  124  A    between atoms: _302  and  _304
REMARK  125  A    between atoms: _304  and  _305
REMARK  126  A    between atoms: _304  and  _307
REMARK  127  A    between atoms: _307  and  _308
REMARK  128  A    between atoms: _311  and  _313
REMARK  129  A    between atoms: _313  and  _314
REMARK  130  A    between atoms: _313  and  _316
REMARK  131  A    between atoms: _316  and  _317
REMARK  132  A    between atoms: _320  and  _322
REMARK  133  A    between atoms: _322  and  _323
REMARK  134  A    between atoms: _322  and  _325
REMARK  135  A    between atoms: _325  and  _326
REMARK  136  A    between atoms: _329  and  _331
REMARK  137  A    between atoms: _331  and  _332
REMARK  138  A    between atoms: _334  and  _336
REMARK  139  A    between atoms: _336  and  _337
REMARK  140  A    between atoms: _340  and  _342
REMARK  141  A    between atoms: _342  and  _343
REMARK  142  A    between atoms: _342  and  _345
REMARK  143  A    between atoms: _345  and  _346
REMARK  144  A    between atoms: _349  and  _351
REMARK  145  A    between atoms: _351  and  _352
REMARK  146  A    between atoms: _351  and  _354
REMARK  147  A    between atoms: _354  and  _355
REMARK  148  A    between atoms: _358  and  _360
REMARK  149  A    between atoms: _360  and  _361
REMARK  150  A    between atoms: _360  and  _363
REMARK  151  A    between atoms: _363  and  _364
REMARK  152  A    between atoms: _367  and  _369
REMARK  153  A    between atoms: _369  and  _370
REMARK  154  A    between atoms: _369  and  _372
REMARK  155  A    between atoms: _375  and  _377
REMARK  156  A    between atoms: _377  and  _378
REMARK  157  A    between atoms: _377  and  _380
REMARK  158  A    between atoms: _380  and  _381
REMARK  159  A    between atoms: _381  and  _382
REMARK  160  A    between atoms: _382  and  _383
REMARK  161  A    between atoms: _383  and  _384
REMARK  162  A    between atoms: _388  and  _390
REMARK  163  A    between atoms: _390  and  _391
REMARK  164  A    between atoms: _390  and  _393
REMARK  165  A    between atoms: _393  and  _394
REMARK  166  A    between atoms: _394  and  _395
REMARK  167  A    between atoms: _397  and  _399
REMARK  168  A    between atoms: _399  and  _400
REMARK  169  A    between atoms: _399  and  _402
REMARK  170  A    between atoms: _402  and  _403
REMARK  171  A    between atoms: _406  and  _408
REMARK  172  A    between atoms: _408  and  _409
REMARK  173  A    between atoms: _411  and  _413
REMARK  174  A    between atoms: _413  and  _414
REMARK  175  A    between atoms: _416  and  _418
REMARK  176  A    between atoms: _418  and  _419
REMARK  177  A    between atoms: _418  and  _421
REMARK  178  A    between atoms: _421  and  _422
REMARK  179  A    between atoms: _425  and  _427
REMARK  180  A    between atoms: _427  and  _428
REMARK  181  A    between atoms: _430  and  _432
REMARK  182  A    between atoms: _432  and  _433
REMARK  183  A    between atoms: _435  and  _437
REMARK  184  A    between atoms: _437  and  _438
REMARK  185  A    between atoms: _437  and  _440
REMARK  186  A    between atoms: _440  and  _441
REMARK  187  A    between atoms: _447  and  _449
REMARK  188  A    between atoms: _449  and  _450
REMARK  189  A    between atoms: _449  and  _452
REMARK  190  A    between atoms: _452  and  _453
REMARK  191  A    between atoms: _456  and  _458
REMARK  192  A    between atoms: _458  and  _459
REMARK  193  A    between atoms: _458  and  _461
REMARK  194  A    between atoms: _464  and  _466
REMARK  195  A    between atoms: _466  and  _467
REMARK  196  A    between atoms: _466  and  _469
REMARK  197  A    between atoms: _469  and  _470
REMARK  198  A    between atoms: _473  and  _475
REMARK  199  A    between atoms: _475  and  _476
REMARK  200  A    between atoms: _479  and  _480
REMARK  201  A    between atoms: _485  and  _487
REMARK  202  A    between atoms: _487  and  _488
REMARK  203  A    between atoms: _487  and  _490
REMARK  204  A    between atoms: _490  and  _491
REMARK  205  A    between atoms: _495  and  _496
REMARK  206  A    between atoms: _501  and  _503
REMARK  207  A    between atoms: _503  and  _504
REMARK  208  A    between atoms: _503  and  _506
REMARK  209  A    between atoms: _509  and  _511
REMARK  210  A    between atoms: _511  and  _512
REMARK  211  A    between atoms: _511  and  _514
REMARK  212  A    between atoms: _514  and  _515
REMARK  213  A    between atoms: _520  and  _522
REMARK  214  A    between atoms: _522  and  _523
REMARK  215  A    between atoms: _522  and  _525
REMARK  216  A    between atoms: _525  and  _526
REMARK  217  A    between atoms: _529  and  _531
REMARK  218  A    between atoms: _531  and  _532
REMARK  219  A    between atoms: _531  and  _534
REMARK  220  A    between atoms: _534  and  _535
REMARK  221  A    between atoms: _538  and  _540
REMARK  222  A    between atoms: _540  and  _541
REMARK  223  A    between atoms: _543  and  _545
REMARK  224  A    between atoms: _545  and  _546
REMARK  225  A    between atoms: _545  and  _548
REMARK  226  A    between atoms: _548  and  _549
REMARK  227  A    between atoms: _549  and  _550
REMARK  228  A    between atoms: _550  and  _551
REMARK  229  A    between atoms: _560  and  _562
REMARK  230  A    between atoms: _562  and  _563
REMARK  231  A    between atoms: _562  and  _565
REMARK  232  A    between atoms: _565  and  _566
REMARK                            x       y       z     vdW  Elec       q    Type
REMARK                         _______ _______ _______ _____ _____    ______ ____
ROOT
ATOM      1  CA  ARG A   2      16.599  35.345  17.639  0.00  0.00    +0.149 C 
ENDROOT
BRANCH   1   3
ATOM      2  C   GLY A   1      15.877  34.073  15.737  0.00  0.00    +0.240 C 
ATOM      3  N   ARG A   2      16.621  34.113  16.859  0.00  0.00    -0.297 N 
ATOM      4  H   ARG A   2      17.190  33.296  17.158  0.00  0.00    +0.150 HD
ATOM      5  O   GLY A   1      15.324  35.081  15.232  0.00  0.00    -0.274 OA
BRANCH   2   6
ATOM      6  CA  GLY A   1      15.766  32.682  15.114  0.00  0.00    +0.169 C 
BRANCH   6   7
ATOM      7  N   GLY A   1      15.049  32.716  13.837  0.00  0.00    -0.236 NA
ATOM      8  H   GLY A   1      15.549  33.001  12.971  0.00  0.00    +0.142 HD
ENDBRANCH   6   7
ENDBRANCH   2   6
ENDBRANCH   1   3
BRANCH   1   9
ATOM      9  C   ARG A   2      17.160  36.544  16.881  0.00  0.00    +0.241 C 
ATOM     10  O   ARG A   2      16.713  37.661  17.170  0.00  0.00    -0.273 OA
ATOM     11  N   ASN A   3      18.122  36.359  15.981  0.00  0.00    -0.298 N 
ATOM     12  H   ASN A   3      18.476  35.401  15.785  0.00  0.00    +0.150 HD
BRANCH  11  13
ATOM     13  CA  ASN A   3      18.686  37.517  15.261  0.00  0.00    +0.146 C 
BRANCH  13  14
ATOM     14  C   ASN A   3      17.629  38.340  14.546  0.00  0.00    +0.227 C 
ATOM     15  O   ASN A   3      17.812  39.558  14.355  0.00  0.00    -0.286 OA
ENDBRANCH  13  14
BRANCH  13  16
ATOM     16  CB  ASN A   3      19.752  37.028  14.291  0.00  0.00    +0.112 C 
BRANCH  16  17
ATOM     17  CG  ASN A   3      19.228  36.320  13.053  0.00  0.00    +0.222 C 
ATOM     18  OD1 ASN A   3      18.480  35.350  13.135  0.00  0.00    -0.275 OA
ATOM     19  ND2 ASN A   3      19.662  36.846  11.903  0.00  0.00    -0.329 N 
ATOM     20 HD21 ASN A   3      20.296  37.671  11.915  0.00  0.00    +0.145 HD
ATOM     21 HD22 ASN A   3      19.366  36.431  10.997  0.00  0.00    +0.145 HD
ENDBRANCH  16  17
ENDBRANCH  13  16
ENDBRANCH  11  13
ENDBRANCH   1   9
BRANCH   1  22
ATOM     22  CB  ARG A   2      17.405  35.122  18.930  0.00  0.00    +0.033 C 
BRANCH  22  23
ATOM     23  CG  ARG A   2      16.770  34.110  19.873  0.00  0.00    +0.045 C 
BRANCH  23  24
ATOM     24  CD  ARG A   2      17.521  34.082  21.215  0.00  0.00    +0.174 C 
BRANCH  24  25
ATOM     25  NE  ARG A   2      18.889  33.599  21.036  0.00  0.00    -0.265 N 
ATOM     26  CZ  ARG A   2      19.959  34.403  21.016  0.00  0.00    +0.342 C 
ATOM     27  NH2 ARG A   2      19.855  35.725  21.169  0.00  0.00    -0.292 N 
ATOM     28 HH21 ARG A   2      18.921  36.160  21.309  0.00  0.00    +0.255 HD
ATOM     29 HH22 ARG A   2      20.708  36.320  21.148  0.00  0.00    +0.255 HD
ATOM     30  NH1 ARG A   2      21.168  33.868  20.844  0.00  0.00    -0.292 N 
ATOM     31 HH11 ARG A   2      22.009  34.479  20.826  0.00  0.00    +0.255 HD
ATOM     32 HH12 ARG A   2      21.270  32.840  20.728  0.00  0.00    +0.255 HD
ATOM     33  HE  ARG A   2      19.039  32.577  20.918  0.00  0.00    +0.259 HD
ENDBRANCH  24  25
ENDBRANCH  23  24
ENDBRANCH  22  23
ENDBRANCH   1  22
TORSDOF 12
REMARK  Name = ../refined-set-2016/4zls/4zls_pocket.pdb
REMARK  232 active torsions:
REMARK  status: ('A' for Active; 'I' for Inactive)
REMARK    1  A    between atoms: _1  and  _3
REMARK    2  A    between atoms: _3  and  _4
REMARK    3  A    between atoms: _3  and  _6
REMARK    4  A    between atoms: _6  and  _7
REMARK    5  A    between atoms: _7  and  _8
REMARK    6  A    between atoms: _8  and  _9
REMARK    7  A    between atoms: _18  and  _20
REMARK    8  A    between atoms: _20  and  _21
REMARK    9  A    between atoms: _20  and  _23
REMARK   10  A    between atoms: _23  and  _24
REMARK   11  A    between atoms: _27  and  _29
REMARK   12  A    between atoms: _29  and  _30
REMARK   13  A    between atoms: _29  and  _32
REMARK   14  A    between atoms: _32  and  _33
REMARK   15  A    between atoms: _36  and  _38
REMARK   16  A    between atoms: _38  and  _39
REMARK   17  A    between atoms: _38  and  _41
REMARK   18  A    between atoms: _41  and  _42
REMARK   19  A    between atoms: _45  and  _47
REMARK   20  A    between atoms: _47  and  _48
REMARK   21  A    between atoms: _47  and  _50
REMARK   22  A    between atoms: _50  and  _51
REMARK   23  A    between atoms: _54  and  _56
REMARK   24  A    between atoms: _56  and  _57
REMARK   25  A    between atoms: _59  and  _61
REMARK   26  A    between atoms: _61  and  _62
REMARK   27  A    between atoms: _65  and  _67
REMARK   28  A    between atoms: _67  and  _68
REMARK   29  A    between atoms: _67  and  _70
REMARK   30  A    between atoms: _70  and  _71
REMARK   31  A    between atoms: _74  and  _76
REMARK   32  A    between atoms: _76  and  _77
REMARK   33  A    between atoms: _76  and  _79
REMARK   34  A    between atoms: _79  and  _80
REMARK   35  A    between atoms: _83  and  _85
REMARK   36  A    between atoms: _85  and  _86
REMARK   37  A    between atoms: _85  and  _88
REMARK   38  A    between atoms: _88  and  _89
REMARK   39  A    between atoms: _92  and  _94
REMARK   40  A    between atoms: _94  and  _95
REMARK   41  A    between atoms: _94  and  _97
REMARK   42  A    between atoms: _100  and  _102
REMARK   43  A    between atoms: _102  and  _103
REMARK   44  A    between atoms: _102  and  _105
REMARK   45  A    between atoms: _105  and  _106
REMARK   46  A    between atoms: _106  and  _107
REMARK   47  A    between atoms: _107  and  _108
REMARK   48  A    between atoms: _108  and  _109
REMARK   49  A    between atoms: _113  and  _115
REMARK   50  A    between atoms: _115  and  _116
REMARK   51  A    between atoms: _115  and  _118
REMARK   52  A    between atoms: _118  and  _119
REMARK   53  A    between atoms: _119  and  _120
REMARK   54  A    between atoms: _122  and  _124
REMARK   55  A    between atoms: _124  and  _125
REMARK   56  A    between atoms: _124  and  _127
REMARK   57  A    between atoms: _127  and  _128
REMARK   58  A    between atoms: _131  and  _133
REMARK   59  A    between atoms: _133  and  _134
REMARK   60  A    between atoms: _136  and  _138
REMARK   61  A    between atoms: _138  and  _139
REMARK   62  A    between atoms: _141  and  _143
REMARK   63  A    between atoms: _143  and  _144
REMARK   64  A    between atoms: _143  and  _146
REMARK   65  A    between atoms: _146  and  _147
REMARK   66  A    between atoms: _150  and  _152
REMARK   67  A    between atoms: _152  and  _153
REMARK   68  A    between atoms: _155  and  _157
REMARK   69  A    between atoms: _157  and  _158
REMARK   70  A    between atoms: _160  and  _162
REMARK   71  A    between atoms: _162  and  _163
REMARK   72  A    between atoms: _162  and  _165
REMARK   73  A    between atoms: _165  and  _166
REMARK   74  A    between atoms: _172  and  _174
REMARK   75  A    between atoms: _174  and  _175
REMARK   76  A    between atoms: _174  and  _177
REMARK   77  A    between atoms: _177  and  _178
REMARK   78  A    between atoms: _181  and  _183
REMARK   79  A    between atoms: _183  and  _184
REMARK   80  A    between atoms: _183  and  _186
REMARK   81  A    between atoms: _186  and  _187
REMARK   82  A    between atoms: _190  and  _192
REMARK   83  A    between atoms: _192  and  _193
REMARK   84  A    between atoms: _192  and  _195
REMARK   85  A    between atoms: _195  and  _196
REMARK   86  A    between atoms: _200  and  _201
REMARK   87  A    between atoms: _206  and  _208
REMARK   88  A    between atoms: _208  and  _209
REMARK   89  A    between atoms: _208  and  _211
REMARK   90  A    between atoms: _214  and  _216
REMARK   91  A    between atoms: _216  and  _217
REMARK   92  A    between atoms: _216  and  _219
REMARK   93  A    between atoms: _219  and  _220
REMARK   94  A    between atoms: _225  and  _227
REMARK   95  A    between atoms: _227  and  _228
REMARK   96  A    between atoms: _227  and  _230
REMARK   97  A    between atoms: _230  and  _231
REMARK   98  A    between atoms: _234  and  _236
REMARK   99  A    between atoms: _236  and  _237
REMARK  100  A    between atoms: _239  and  _241
REMARK  101  A    between atoms: _241  and  _242
REMARK  102  A    between atoms: _241  and  _244
REMARK  103  A    between atoms: _244  and  _245
REMARK  104  A    between atoms: _245  and  _246
REMARK  105  A    between atoms: _246  and  _247
REMARK  106  A    between atoms: _256  and  _258
REMARK  107  A    between atoms: _258  and  _259
REMARK  108  A    between atoms: _258  and  _261
REMARK  109  A    between atoms: _261  and  _262
REMARK  110  A    between atoms: _267  and  _269
REMARK  111  A    between atoms: _269  and  _270
REMARK  112  A    between atoms: _269  and  _272
REMARK  113  A    between atoms: _272  and  _273
REMARK  114  A    between atoms: _273  and  _274
REMARK  115  A    between atoms: _274  and  _275
REMARK  116  A    between atoms: _284  and  _286
REMARK  117  A    between atoms: _286  and  _287
REMARK  118  A    between atoms: _286  and  _289
REMARK  119  A    between atoms: _289  and  _290
REMARK  120  A    between atoms: _293  and  _295
REMARK  121  A    between atoms: _295  and  _296
REMARK  122  A    between atoms: _295  and  _298
REMARK  123  A    between atoms: _298  and  _299
REMARK  124  A    between atoms: _302  and  _304
REMARK  125  A    between atoms: _304  and  _305
REMARK  126  A    between atoms: _304  and  _307
REMARK  127  A    between atoms: _307  and  _308
REMARK  128  A    between atoms: _311  and  _313
REMARK  129  A    between atoms: _313  and  _314
REMARK  130  A    between atoms: _313  and  _316
REMARK  131  A    between atoms: _316  and  _317
REMARK  132  A    between atoms: _320  and  _322
REMARK  133  A    between atoms: _322  and  _323
REMARK  134  A    between atoms: _322  and  _325
REMARK  135  A    between atoms: _325  and  _326
REMARK  136  A    between atoms: _329  and  _331
REMARK  137  A    between atoms: _331  and  _332
REMARK  138  A    between atoms: _334  and  _336
REMARK  139  A    between atoms: _336  and  _337
REMARK  140  A    between atoms: _340  and  _342
REMARK  141  A    between atoms: _342  and  _343
REMARK  142  A    between atoms: _342  and  _345
REMARK  143  A    between atoms: _345  and  _346
REMARK  144  A    between atoms: _349  and  _351
REMARK  145  A    between atoms: _351  and  _352
REMARK  146  A    between atoms: _351  and  _354
REMARK  147  A    between atoms: _354  and  _355
REMARK  148  A    between atoms: _358  and  _360
REMARK  149  A    between atoms: _360  and  _361
REMARK  150  A    between atoms: _360  and  _363
REMARK  151  A    between atoms: _363  and  _364
REMARK  152  A    between atoms: _367  and  _369
REMARK  153  A    between atoms: _369  and  _370
REMARK  154  A    between atoms: _369  and  _372
REMARK  155  A    between atoms: _375  and  _377
REMARK  156  A    between atoms: _377  and  _378
REMARK  157  A    between atoms: _377  and  _380
REMARK  158  A    between atoms: _380  and  _381
REMARK  159  A    between atoms: _381  and  _382
REMARK  160  A    between atoms: _382  and  _383
REMARK  161  A    between atoms: _383  and  _384
REMARK  162  A    between atoms: _388  and  _390
REMARK  163  A    between atoms: _390  and  _391
REMARK  164  A    between atoms: _390  and  _393
REMARK  165  A    between atoms: _393  and  _394
REMARK  166  A    between atoms: _394  and  _395
REMARK  167  A    between atoms: _397  and  _399
REMARK  168  A    between atoms: _399  and  _400
REMARK  169  A    between atoms: _399  and  _402
REMARK  170  A    between atoms: _402  and  _403
REMARK  171  A    between atoms: _406  and  _408
REMARK  172  A    between atoms: _408  and  _409
REMARK  173  A    between atoms: _411  and  _413
REMARK  174  A    between atoms: _413  and  _414
REMARK  175  A    between atoms: _416  and  _418
REMARK  176  A    between atoms: _418  and  _419
REMARK  177  A    between atoms: _418  and  _421
REMARK  178  A    between atoms: _421  and  _422
REMARK  179  A    between atoms: _425  and  _427
REMARK  180  A    between atoms: _427  and  _428
REMARK  181  A    between atoms: _430  and  _432
REMARK  182  A    between atoms: _432  and  _433
REMARK  183  A    between atoms: _435  and  _437
REMARK  184  A    between atoms: _437  and  _438
REMARK  185  A    between atoms: _437  and  _440
REMARK  186  A    between atoms: _440  and  _441
REMARK  187  A    between atoms: _447  and  _449
REMARK  188  A    between atoms: _449  and  _450
REMARK  189  A    between atoms: _449  and  _452
REMARK  190  A    between atoms: _452  and  _453
REMARK  191  A    between atoms: _456  and  _458
REMARK  192  A    between atoms: _458  and  _459
REMARK  193  A    between atoms: _458  and  _461
REMARK  194  A    between atoms: _464  and  _466
REMARK  195  A    between atoms: _466  and  _467
REMARK  196  A    between atoms: _466  and  _469
REMARK  197  A    between atoms: _469  and  _470
REMARK  198  A    between atoms: _473  and  _475
REMARK  199  A    between atoms: _475  and  _476
REMARK  200  A    between atoms: _479  and  _480
REMARK  201  A    between atoms: _485  and  _487
REMARK  202  A    between atoms: _487  and  _488
REMARK  203  A    between atoms: _487  and  _490
REMARK  204  A    between atoms: _490  and  _491
REMARK  205  A    between atoms: _495  and  _496
REMARK  206  A    between atoms: _501  and  _503
REMARK  207  A    between atoms: _503  and  _504
REMARK  208  A    between atoms: _503  and  _506
REMARK  209  A    between atoms: _509  and  _511
REMARK  210  A    between atoms: _511  and  _512
REMARK  211  A    between atoms: _511  and  _514
REMARK  212  A    between atoms: _514  and  _515
REMARK  213  A    between atoms: _520  and  _522
REMARK  214  A    between atoms: _522  and  _523
REMARK  215  A    between atoms: _522  and  _525
REMARK  216  A    between atoms: _525  and  _526
REMARK  217  A    between atoms: _529  and  _531
REMARK  218  A    between atoms: _531  and  _532
REMARK  219  A    between atoms: _531  and  _534
REMARK  220  A    between atoms: _534  and  _535
REMARK  221  A    between atoms: _538  and  _540
REMARK  222  A    between atoms: _540  and  _541
REMARK  223  A    between atoms: _543  and  _545
REMARK  224  A    between atoms: _545  and  _546
REMARK  225  A    between atoms: _545  and  _548
REMARK  226  A    between atoms: _548  and  _549
REMARK  227  A    between atoms: _549  and  _550
REMARK  228  A    between atoms: _550  and  _551
REMARK  229  A    between atoms: _560  and  _562
REMARK  230  A    between atoms: _562  and  _563
REMARK  231  A    between atoms: _562  and  _565
REMARK  232  A    between atoms: _565  and  _566
REMARK                            x       y       z     vdW  Elec       q    Type
REMARK                         _______ _______ _______ _____ _____    ______ ____
ROOT
ATOM      1  NE  ARG A   1      22.479  29.845  22.730  0.00  0.00    -0.265 N 
ATOM      2  CZ  ARG A   1      23.110  28.673  22.644  0.00  0.00    +0.342 C 
ATOM      3  NH2 ARG A   1      23.196  27.915  23.728  0.00  0.00    -0.292 N 
ATOM      4 HH21 ARG A   1      22.776  28.238  24.623  0.00  0.00    +0.255 HD
ATOM      5 HH22 ARG A   1      23.684  26.997  23.684  0.00  0.00    +0.255 HD
ATOM      6  NH1 ARG A   1      23.627  28.291  21.487  0.00  0.00    -0.292 N 
ATOM      7 HH11 ARG A   1      24.120  27.378  21.414  0.00  0.00    +0.255 HD
ATOM      8 HH12 ARG A   1      23.540  28.904  20.651  0.00  0.00    +0.255 HD
ATOM      9  HE  ARG A   1      22.407  30.442  21.881  0.00  0.00    +0.259 HD
ENDROOT
BRANCH   1  10
ATOM     10  CD  ARG A   1      21.881  30.320  23.988  0.00  0.00    +0.174 C 
BRANCH  10  11
ATOM     11  CG  ARG A   1      21.235  31.699  23.747  0.00  0.00    +0.045 C 
BRANCH  11  12
ATOM     12  CB  ARG A   1      20.568  32.148  25.052  0.00  0.00    +0.029 C 
BRANCH  12  13
ATOM     13  CA  ARG A   1      19.583  33.284  24.858  0.00  0.00    +0.133 C 
BRANCH  13  14
ATOM     14  N   ARG A   1      20.337  34.543  24.729  0.00  0.00    -0.239 NA
ATOM     15  H   ARG A   1      21.375  34.552  24.794  0.00  0.00    +0.142 HD
ENDBRANCH  13  14
BRANCH  13  16
ATOM     16  C   ARG A   1      18.633  33.350  26.035  0.00  0.00    +0.224 C 
ATOM     17  O   ARG A   1      19.066  33.857  27.081  0.00  0.00    -0.287 OA
ENDBRANCH  13  16
ENDBRANCH  12  13
ENDBRANCH  11  12
ENDBRANCH  10  11
ENDBRANCH   1  10
TORSDOF 6
REMARK  Name = ../refined-set-2016/4zls/4zls_pocket.pdb
REMARK  232 active torsions:
REMARK  status: ('A' for Active; 'I' for Inactive)
REMARK    1  A    between atoms: _1  and  _3
REMARK    2  A    between atoms: _3  and  _4
REMARK    3  A    between atoms: _3  and  _6
REMARK    4  A    between atoms: _6  and  _7
REMARK    5  A    between atoms: _7  and  _8
REMARK    6  A    between atoms: _8  and  _9
REMARK    7  A    between atoms: _18  and  _20
REMARK    8  A    between atoms: _20  and  _21
REMARK    9  A    between atoms: _20  and  _23
REMARK   10  A    between atoms: _23  and  _24
REMARK   11  A    between atoms: _27  and  _29
REMARK   12  A    between atoms: _29  and  _30
REMARK   13  A    between atoms: _29  and  _32
REMARK   14  A    between atoms: _32  and  _33
REMARK   15  A    between atoms: _36  and  _38
REMARK   16  A    between atoms: _38  and  _39
REMARK   17  A    between atoms: _38  and  _41
REMARK   18  A    between atoms: _41  and  _42
REMARK   19  A    between atoms: _45  and  _47
REMARK   20  A    between atoms: _47  and  _48
REMARK   21  A    between atoms: _47  and  _50
REMARK   22  A    between atoms: _50  and  _51
REMARK   23  A    between atoms: _54  and  _56
REMARK   24  A    between atoms: _56  and  _57
REMARK   25  A    between atoms: _59  and  _61
REMARK   26  A    between atoms: _61  and  _62
REMARK   27  A    between atoms: _65  and  _67
REMARK   28  A    between atoms: _67  and  _68
REMARK   29  A    between atoms: _67  and  _70
REMARK   30  A    between atoms: _70  and  _71
REMARK   31  A    between atoms: _74  and  _76
REMARK   32  A    between atoms: _76  and  _77
REMARK   33  A    between atoms: _76  and  _79
REMARK   34  A    between atoms: _79  and  _80
REMARK   35  A    between atoms: _83  and  _85
REMARK   36  A    between atoms: _85  and  _86
REMARK   37  A    between atoms: _85  and  _88
REMARK   38  A    between atoms: _88  and  _89
REMARK   39  A    between atoms: _92  and  _94
REMARK   40  A    between atoms: _94  and  _95
REMARK   41  A    between atoms: _94  and  _97
REMARK   42  A    between atoms: _100  and  _102
REMARK   43  A    between atoms: _102  and  _103
REMARK   44  A    between atoms: _102  and  _105
REMARK   45  A    between atoms: _105  and  _106
REMARK   46  A    between atoms: _106  and  _107
REMARK   47  A    between atoms: _107  and  _108
REMARK   48  A    between atoms: _108  and  _109
REMARK   49  A    between atoms: _113  and  _115
REMARK   50  A    between atoms: _115  and  _116
REMARK   51  A    between atoms: _115  and  _118
REMARK   52  A    between atoms: _118  and  _119
REMARK   53  A    between atoms: _119  and  _120
REMARK   54  A    between atoms: _122  and  _124
REMARK   55  A    between atoms: _124  and  _125
REMARK   56  A    between atoms: _124  and  _127
REMARK   57  A    between atoms: _127  and  _128
REMARK   58  A    between atoms: _131  and  _133
REMARK   59  A    between atoms: _133  and  _134
REMARK   60  A    between atoms: _136  and  _138
REMARK   61  A    between atoms: _138  and  _139
REMARK   62  A    between atoms: _141  and  _143
REMARK   63  A    between atoms: _143  and  _144
REMARK   64  A    between atoms: _143  and  _146
REMARK   65  A    between atoms: _146  and  _147
REMARK   66  A    between atoms: _150  and  _152
REMARK   67  A    between atoms: _152  and  _153
REMARK   68  A    between atoms: _155  and  _157
REMARK   69  A    between atoms: _157  and  _158
REMARK   70  A    between atoms: _160  and  _162
REMARK   71  A    between atoms: _162  and  _163
REMARK   72  A    between atoms: _162  and  _165
REMARK   73  A    between atoms: _165  and  _166
REMARK   74  A    between atoms: _172  and  _174
REMARK   75  A    between atoms: _174  and  _175
REMARK   76  A    between atoms: _174  and  _177
REMARK   77  A    between atoms: _177  and  _178
REMARK   78  A    between atoms: _181  and  _183
REMARK   79  A    between atoms: _183  and  _184
REMARK   80  A    between atoms: _183  and  _186
REMARK   81  A    between atoms: _186  and  _187
REMARK   82  A    between atoms: _190  and  _192
REMARK   83  A    between atoms: _192  and  _193
REMARK   84  A    between atoms: _192  and  _195
REMARK   85  A    between atoms: _195  and  _196
REMARK   86  A    between atoms: _200  and  _201
REMARK   87  A    between atoms: _206  and  _208
REMARK   88  A    between atoms: _208  and  _209
REMARK   89  A    between atoms: _208  and  _211
REMARK   90  A    between atoms: _214  and  _216
REMARK   91  A    between atoms: _216  and  _217
REMARK   92  A    between atoms: _216  and  _219
REMARK   93  A    between atoms: _219  and  _220
REMARK   94  A    between atoms: _225  and  _227
REMARK   95  A    between atoms: _227  and  _228
REMARK   96  A    between atoms: _227  and  _230
REMARK   97  A    between atoms: _230  and  _231
REMARK   98  A    between atoms: _234  and  _236
REMARK   99  A    between atoms: _236  and  _237
REMARK  100  A    between atoms: _239  and  _241
REMARK  101  A    between atoms: _241  and  _242
REMARK  102  A    between atoms: _241  and  _244
REMARK  103  A    between atoms: _244  and  _245
REMARK  104  A    between atoms: _245  and  _246
REMARK  105  A    between atoms: _246  and  _247
REMARK  106  A    between atoms: _256  and  _258
REMARK  107  A    between atoms: _258  and  _259
REMARK  108  A    between atoms: _258  and  _261
REMARK  109  A    between atoms: _261  and  _262
REMARK  110  A    between atoms: _267  and  _269
REMARK  111  A    between atoms: _269  and  _270
REMARK  112  A    between atoms: _269  and  _272
REMARK  113  A    between atoms: _272  and  _273
REMARK  114  A    between atoms: _273  and  _274
REMARK  115  A    between atoms: _274  and  _275
REMARK  116  A    between atoms: _284  and  _286
REMARK  117  A    between atoms: _286  and  _287
REMARK  118  A    between atoms: _286  and  _289
REMARK  119  A    between atoms: _289  and  _290
REMARK  120  A    between atoms: _293  and  _295
REMARK  121  A    between atoms: _295  and  _296
REMARK  122  A    between atoms: _295  and  _298
REMARK  123  A    between atoms: _298  and  _299
REMARK  124  A    between atoms: _302  and  _304
REMARK  125  A    between atoms: _304  and  _305
REMARK  126  A    between atoms: _304  and  _307
REMARK  127  A    between atoms: _307  and  _308
REMARK  128  A    between atoms: _311  and  _313
REMARK  129  A    between atoms: _313  and  _314
REMARK  130  A    between atoms: _313  and  _316
REMARK  131  A    between atoms: _316  and  _317
REMARK  132  A    between atoms: _320  and  _322
REMARK  133  A    between atoms: _322  and  _323
REMARK  134  A    between atoms: _322  and  _325
REMARK  135  A    between atoms: _325  and  _326
REMARK  136  A    between atoms: _329  and  _331
REMARK  137  A    between atoms: _331  and  _332
REMARK  138  A    between atoms: _334  and  _336
REMARK  139  A    between atoms: _336  and  _337
REMARK  140  A    between atoms: _340  and  _342
REMARK  141  A    between atoms: _342  and  _343
REMARK  142  A    between atoms: _342  and  _345
REMARK  143  A    between atoms: _345  and  _346
REMARK  144  A    between atoms: _349  and  _351
REMARK  145  A    between atoms: _351  and  _352
REMARK  146  A    between atoms: _351  and  _354
REMARK  147  A    between atoms: _354  and  _355
REMARK  148  A    between atoms: _358  and  _360
REMARK  149  A    between atoms: _360  and  _361
REMARK  150  A    between atoms: _360  and  _363
REMARK  151  A    between atoms: _363  and  _364
REMARK  152  A    between atoms: _367  and  _369
REMARK  153  A    between atoms: _369  and  _370
REMARK  154  A    between atoms: _369  and  _372
REMARK  155  A    between atoms: _375  and  _377
REMARK  156  A    between atoms: _377  and  _378
REMARK  157  A    between atoms: _377  and  _380
REMARK  158  A    between atoms: _380  and  _381
REMARK  159  A    between atoms: _381  and  _382
REMARK  160  A    between atoms: _382  and  _383
REMARK  161  A    between atoms: _383  and  _384
REMARK  162  A    between atoms: _388  and  _390
REMARK  163  A    between atoms: _390  and  _391
REMARK  164  A    between atoms: _390  and  _393
REMARK  165  A    between atoms: _393  and  _394
REMARK  166  A    between atoms: _394  and  _395
REMARK  167  A    between atoms: _397  and  _399
REMARK  168  A    between atoms: _399  and  _400
REMARK  169  A    between atoms: _399  and  _402
REMARK  170  A    between atoms: _402  and  _403
REMARK  171  A    between atoms: _406  and  _408
REMARK  172  A    between atoms: _408  and  _409
REMARK  173  A    between atoms: _411  and  _413
REMARK  174  A    between atoms: _413  and  _414
REMARK  175  A    between atoms: _416  and  _418
REMARK  176  A    between atoms: _418  and  _419
REMARK  177  A    between atoms: _418  and  _421
REMARK  178  A    between atoms: _421  and  _422
REMARK  179  A    between atoms: _425  and  _427
REMARK  180  A    between atoms: _427  and  _428
REMARK  181  A    between atoms: _430  and  _432
REMARK  182  A    between atoms: _432  and  _433
REMARK  183  A    between atoms: _435  and  _437
REMARK  184  A    between atoms: _437  and  _438
REMARK  185  A    between atoms: _437  and  _440
REMARK  186  A    between atoms: _440  and  _441
REMARK  187  A    between atoms: _447  and  _449
REMARK  188  A    between atoms: _449  and  _450
REMARK  189  A    between atoms: _449  and  _452
REMARK  190  A    between atoms: _452  and  _453
REMARK  191  A    between atoms: _456  and  _458
REMARK  192  A    between atoms: _458  and  _459
REMARK  193  A    between atoms: _458  and  _461
REMARK  194  A    between atoms: _464  and  _466
REMARK  195  A    between atoms: _466  and  _467
REMARK  196  A    between atoms: _466  and  _469
REMARK  197  A    between atoms: _469  and  _470
REMARK  198  A    between atoms: _473  and  _475
REMARK  199  A    between atoms: _475  and  _476
REMARK  200  A    between atoms: _479  and  _480
REMARK  201  A    between atoms: _485  and  _487
REMARK  202  A    between atoms: _487  and  _488
REMARK  203  A    between atoms: _487  and  _490
REMARK  204  A    between atoms: _490  and  _491
REMARK  205  A    between atoms: _495  and  _496
REMARK  206  A    between atoms: _501  and  _503
REMARK  207  A    between atoms: _503  and  _504
REMARK  208  A    between atoms: _503  and  _506
REMARK  209  A    between atoms: _509  and  _511
REMARK  210  A    between atoms: _511  and  _512
REMARK  211  A    between atoms: _511  and  _514
REMARK  212  A    between atoms: _514  and  _515
REMARK  213  A    between atoms: _520  and  _522
REMARK  214  A    between atoms: _522  and  _523
REMARK  215  A    between atoms: _522  and  _525
REMARK  216  A    between atoms: _525  and  _526
REMARK  217  A    between atoms: _529  and  _531
REMARK  218  A    between atoms: _531  and  _532
REMARK  219  A    between atoms: _531  and  _534
REMARK  220  A    between atoms: _534  and  _535
REMARK  221  A    between atoms: _538  and  _540
REMARK  222  A    between atoms: _540  and  _541
REMARK  223  A    between atoms: _543  and  _545
REMARK  224  A    between atoms: _545  and  _546
REMARK  225  A    between atoms: _545  and  _548
REMARK  226  A    between atoms: _548  and  _549
REMARK  227  A    between atoms: _549  and  _550
REMARK  228  A    between atoms: _550  and  _551
REMARK  229  A    between atoms: _560  and  _562
REMARK  230  A    between atoms: _562  and  _563
REMARK  231  A    between atoms: _562  and  _565
REMARK  232  A    between atoms: _565  and  _566
REMARK                            x       y       z     vdW  Elec       q    Type
REMARK                         _______ _______ _______ _____ _____    ______ ____
ROOT
ATOM      1  CA  LEU A   1      18.090  31.025  29.766  0.00  0.00    +0.133 C 
ENDROOT
BRANCH   1   2
ATOM      2  N   LEU A   1      17.709  32.027  28.771  0.00  0.00    -0.239 NA
ATOM      3  H   LEU A   1      18.304  32.873  28.660  0.00  0.00    +0.142 HD
ENDBRANCH   1   2
BRANCH   1   4
ATOM      4  C   LEU A   1      17.446  31.321  31.106  0.00  0.00    +0.224 C 
ATOM      5  O   LEU A   1      17.479  32.485  31.528  0.00  0.00    -0.287 OA
ENDBRANCH   1   4
BRANCH   1   6
ATOM      6  CB  LEU A   1      19.613  30.979  29.943  0.00  0.00    +0.025 C 
BRANCH   6   7
ATOM      7  CG  LEU A   1      20.332  30.586  28.633  0.00  0.00    +0.002 C 
ATOM      8  CD2 LEU A   1      21.813  30.912  28.723  0.00  0.00    +0.000 C 
ATOM      9  CD1 LEU A   1      20.120  29.128  28.292  0.00  0.00    +0.000 C 
ENDBRANCH   6   7
ENDBRANCH   1   6
TORSDOF 4
REMARK  Name = ../refined-set-2016/4zls/4zls_pocket.pdb
REMARK  232 active torsions:
REMARK  status: ('A' for Active; 'I' for Inactive)
REMARK    1  A    between atoms: _1  and  _3
REMARK    2  A    between atoms: _3  and  _4
REMARK    3  A    between atoms: _3  and  _6
REMARK    4  A    between atoms: _6  and  _7
REMARK    5  A    between atoms: _7  and  _8
REMARK    6  A    between atoms: _8  and  _9
REMARK    7  A    between atoms: _18  and  _20
REMARK    8  A    between atoms: _20  and  _21
REMARK    9  A    between atoms: _20  and  _23
REMARK   10  A    between atoms: _23  and  _24
REMARK   11  A    between atoms: _27  and  _29
REMARK   12  A    between atoms: _29  and  _30
REMARK   13  A    between atoms: _29  and  _32
REMARK   14  A    between atoms: _32  and  _33
REMARK   15  A    between atoms: _36  and  _38
REMARK   16  A    between atoms: _38  and  _39
REMARK   17  A    between atoms: _38  and  _41
REMARK   18  A    between atoms: _41  and  _42
REMARK   19  A    between atoms: _45  and  _47
REMARK   20  A    between atoms: _47  and  _48
REMARK   21  A    between atoms: _47  and  _50
REMARK   22  A    between atoms: _50  and  _51
REMARK   23  A    between atoms: _54  and  _56
REMARK   24  A    between atoms: _56  and  _57
REMARK   25  A    between atoms: _59  and  _61
REMARK   26  A    between atoms: _61  and  _62
REMARK   27  A    between atoms: _65  and  _67
REMARK   28  A    between atoms: _67  and  _68
REMARK   29  A    between atoms: _67  and  _70
REMARK   30  A    between atoms: _70  and  _71
REMARK   31  A    between atoms: _74  and  _76
REMARK   32  A    between atoms: _76  and  _77
REMARK   33  A    between atoms: _76  and  _79
REMARK   34  A    between atoms: _79  and  _80
REMARK   35  A    between atoms: _83  and  _85
REMARK   36  A    between atoms: _85  and  _86
REMARK   37  A    between atoms: _85  and  _88
REMARK   38  A    between atoms: _88  and  _89
REMARK   39  A    between atoms: _92  and  _94
REMARK   40  A    between atoms: _94  and  _95
REMARK   41  A    between atoms: _94  and  _97
REMARK   42  A    between atoms: _100  and  _102
REMARK   43  A    between atoms: _102  and  _103
REMARK   44  A    between atoms: _102  and  _105
REMARK   45  A    between atoms: _105  and  _106
REMARK   46  A    between atoms: _106  and  _107
REMARK   47  A    between atoms: _107  and  _108
REMARK   48  A    between atoms: _108  and  _109
REMARK   49  A    between atoms: _113  and  _115
REMARK   50  A    between atoms: _115  and  _116
REMARK   51  A    between atoms: _115  and  _118
REMARK   52  A    between atoms: _118  and  _119
REMARK   53  A    between atoms: _119  and  _120
REMARK   54  A    between atoms: _122  and  _124
REMARK   55  A    between atoms: _124  and  _125
REMARK   56  A    between atoms: _124  and  _127
REMARK   57  A    between atoms: _127  and  _128
REMARK   58  A    between atoms: _131  and  _133
REMARK   59  A    between atoms: _133  and  _134
REMARK   60  A    between atoms: _136  and  _138
REMARK   61  A    between atoms: _138  and  _139
REMARK   62  A    between atoms: _141  and  _143
REMARK   63  A    between atoms: _143  and  _144
REMARK   64  A    between atoms: _143  and  _146
REMARK   65  A    between atoms: _146  and  _147
REMARK   66  A    between atoms: _150  and  _152
REMARK   67  A    between atoms: _152  and  _153
REMARK   68  A    between atoms: _155  and  _157
REMARK   69  A    between atoms: _157  and  _158
REMARK   70  A    between atoms: _160  and  _162
REMARK   71  A    between atoms: _162  and  _163
REMARK   72  A    between atoms: _162  and  _165
REMARK   73  A    between atoms: _165  and  _166
REMARK   74  A    between atoms: _172  and  _174
REMARK   75  A    between atoms: _174  and  _175
REMARK   76  A    between atoms: _174  and  _177
REMARK   77  A    between atoms: _177  and  _178
REMARK   78  A    between atoms: _181  and  _183
REMARK   79  A    between atoms: _183  and  _184
REMARK   80  A    between atoms: _183  and  _186
REMARK   81  A    between atoms: _186  and  _187
REMARK   82  A    between atoms: _190  and  _192
REMARK   83  A    between atoms: _192  and  _193
REMARK   84  A    between atoms: _192  and  _195
REMARK   85  A    between atoms: _195  and  _196
REMARK   86  A    between atoms: _200  and  _201
REMARK   87  A    between atoms: _206  and  _208
REMARK   88  A    between atoms: _208  and  _209
REMARK   89  A    between atoms: _208  and  _211
REMARK   90  A    between atoms: _214  and  _216
REMARK   91  A    between atoms: _216  and  _217
REMARK   92  A    between atoms: _216  and  _219
REMARK   93  A    between atoms: _219  and  _220
REMARK   94  A    between atoms: _225  and  _227
REMARK   95  A    between atoms: _227  and  _228
REMARK   96  A    between atoms: _227  and  _230
REMARK   97  A    between atoms: _230  and  _231
REMARK   98  A    between atoms: _234  and  _236
REMARK   99  A    between atoms: _236  and  _237
REMARK  100  A    between atoms: _239  and  _241
REMARK  101  A    between atoms: _241  and  _242
REMARK  102  A    between atoms: _241  and  _244
REMARK  103  A    between atoms: _244  and  _245
REMARK  104  A    between atoms: _245  and  _246
REMARK  105  A    between atoms: _246  and  _247
REMARK  106  A    between atoms: _256  and  _258
REMARK  107  A    between atoms: _258  and  _259
REMARK  108  A    between atoms: _258  and  _261
REMARK  109  A    between atoms: _261  and  _262
REMARK  110  A    between atoms: _267  and  _269
REMARK  111  A    between atoms: _269  and  _270
REMARK  112  A    between atoms: _269  and  _272
REMARK  113  A    between atoms: _272  and  _273
REMARK  114  A    between atoms: _273  and  _274
REMARK  115  A    between atoms: _274  and  _275
REMARK  116  A    between atoms: _284  and  _286
REMARK  117  A    between atoms: _286  and  _287
REMARK  118  A    between atoms: _286  and  _289
REMARK  119  A    between atoms: _289  and  _290
REMARK  120  A    between atoms: _293  and  _295
REMARK  121  A    between atoms: _295  and  _296
REMARK  122  A    between atoms: _295  and  _298
REMARK  123  A    between atoms: _298  and  _299
REMARK  124  A    between atoms: _302  and  _304
REMARK  125  A    between atoms: _304  and  _305
REMARK  126  A    between atoms: _304  and  _307
REMARK  127  A    between atoms: _307  and  _308
REMARK  128  A    between atoms: _311  and  _313
REMARK  129  A    between atoms: _313  and  _314
REMARK  130  A    between atoms: _313  and  _316
REMARK  131  A    between atoms: _316  and  _317
REMARK  132  A    between atoms: _320  and  _322
REMARK  133  A    between atoms: _322  and  _323
REMARK  134  A    between atoms: _322  and  _325
REMARK  135  A    between atoms: _325  and  _326
REMARK  136  A    between atoms: _329  and  _331
REMARK  137  A    between atoms: _331  and  _332
REMARK  138  A    between atoms: _334  and  _336
REMARK  139  A    between atoms: _336  and  _337
REMARK  140  A    between atoms: _340  and  _342
REMARK  141  A    between atoms: _342  and  _343
REMARK  142  A    between atoms: _342  and  _345
REMARK  143  A    between atoms: _345  and  _346
REMARK  144  A    between atoms: _349  and  _351
REMARK  145  A    between atoms: _351  and  _352
REMARK  146  A    between atoms: _351  and  _354
REMARK  147  A    between atoms: _354  and  _355
REMARK  148  A    between atoms: _358  and  _360
REMARK  149  A    between atoms: _360  and  _361
REMARK  150  A    between atoms: _360  and  _363
REMARK  151  A    between atoms: _363  and  _364
REMARK  152  A    between atoms: _367  and  _369
REMARK  153  A    between atoms: _369  and  _370
REMARK  154  A    between atoms: _369  and  _372
REMARK  155  A    between atoms: _375  and  _377
REMARK  156  A    between atoms: _377  and  _378
REMARK  157  A    between atoms: _377  and  _380
REMARK  158  A    between atoms: _380  and  _381
REMARK  159  A    between atoms: _381  and  _382
REMARK  160  A    between atoms: _382  and  _383
REMARK  161  A    between atoms: _383  and  _384
REMARK  162  A    between atoms: _388  and  _390
REMARK  163  A    between atoms: _390  and  _391
REMARK  164  A    between atoms: _390  and  _393
REMARK  165  A    between atoms: _393  and  _394
REMARK  166  A    between atoms: _394  and  _395
REMARK  167  A    between atoms: _397  and  _399
REMARK  168  A    between atoms: _399  and  _400
REMARK  169  A    between atoms: _399  and  _402
REMARK  170  A    between atoms: _402  and  _403
REMARK  171  A    between atoms: _406  and  _408
REMARK  172  A    between atoms: _408  and  _409
REMARK  173  A    between atoms: _411  and  _413
REMARK  174  A    between atoms: _413  and  _414
REMARK  175  A    between atoms: _416  and  _418
REMARK  176  A    between atoms: _418  and  _419
REMARK  177  A    between atoms: _418  and  _421
REMARK  178  A    between atoms: _421  and  _422
REMARK  179  A    between atoms: _425  and  _427
REMARK  180  A    between atoms: _427  and  _428
REMARK  181  A    between atoms: _430  and  _432
REMARK  182  A    between atoms: _432  and  _433
REMARK  183  A    between atoms: _435  and  _437
REMARK  184  A    between atoms: _437  and  _438
REMARK  185  A    between atoms: _437  and  _440
REMARK  186  A    between atoms: _440  and  _441
REMARK  187  A    between atoms: _447  and  _449
REMARK  188  A    between atoms: _449  and  _450
REMARK  189  A    between atoms: _449  and  _452
REMARK  190  A    between atoms: _452  and  _453
REMARK  191  A    between atoms: _456  and  _458
REMARK  192  A    between atoms: _458  and  _459
REMARK  193  A    between atoms: _458  and  _461
REMARK  194  A    between atoms: _464  and  _466
REMARK  195  A    between atoms: _466  and  _467
REMARK  196  A    between atoms: _466  and  _469
REMARK  197  A    between atoms: _469  and  _470
REMARK  198  A    between atoms: _473  and  _475
REMARK  199  A    between atoms: _475  and  _476
REMARK  200  A    between atoms: _479  and  _480
REMARK  201  A    between atoms: _485  and  _487
REMARK  202  A    between atoms: _487  and  _488
REMARK  203  A    between atoms: _487  and  _490
REMARK  204  A    between atoms: _490  and  _491
REMARK  205  A    between atoms: _495  and  _496
REMARK  206  A    between atoms: _501  and  _503
REMARK  207  A    between atoms: _503  and  _504
REMARK  208  A    between atoms: _503  and  _506
REMARK  209  A    between atoms: _509  and  _511
REMARK  210  A    between atoms: _511  and  _512
REMARK  211  A    between atoms: _511  and  _514
REMARK  212  A    between atoms: _514  and  _515
REMARK  213  A    between atoms: _520  and  _522
REMARK  214  A    between atoms: _522  and  _523
REMARK  215  A    between atoms: _522  and  _525
REMARK  216  A    between atoms: _525  and  _526
REMARK  217  A    between atoms: _529  and  _531
REMARK  218  A    between atoms: _531  and  _532
REMARK  219  A    between atoms: _531  and  _534
REMARK  220  A    between atoms: _534  and  _535
REMARK  221  A    between atoms: _538  and  _540
REMARK  222  A    between atoms: _540  and  _541
REMARK  223  A    between atoms: _543  and  _545
REMARK  224  A    between atoms: _545  and  _546
REMARK  225  A    between atoms: _545  and  _548
REMARK  226  A    between atoms: _548  and  _549
REMARK  227  A    between atoms: _549  and  _550
REMARK  228  A    between atoms: _550  and  _551
REMARK  229  A    between atoms: _560  and  _562
REMARK  230  A    between atoms: _562  and  _563
REMARK  231  A    between atoms: _562  and  _565
REMARK  232  A    between atoms: _565  and  _566
REMARK                            x       y       z     vdW  Elec       q    Type
REMARK                         _______ _______ _______ _____ _____    ______ ____
ROOT
ATOM      1  C   GLY A   5      10.860  24.363  18.784  0.00  0.00    +0.243 C 
ATOM      2  N   ALA A   6      10.816  24.011  20.068  0.00  0.00    -0.297 N 
ATOM      3  H   ALA A   6      10.716  24.758  20.785  0.00  0.00    +0.150 HD
ATOM      4  O   GLY A   5      11.003  23.527  17.889  0.00  0.00    -0.273 OA
ENDROOT
BRANCH   2   5
ATOM      5  CA  ALA A   6      10.902  22.615  20.516  0.00  0.00    +0.149 C 
ATOM      6  CB  ALA A   6      11.893  22.541  21.678  0.00  0.00    +0.031 C 
BRANCH   5   7
ATOM      7  C   ALA A   6       9.540  22.091  20.954  0.00  0.00    +0.241 C 
ATOM      8  O   ALA A   6       8.872  22.662  21.825  0.00  0.00    -0.273 OA
ATOM      9  N   ASP A   7       9.066  20.998  20.346  0.00  0.00    -0.297 N 
ATOM     10  H   ASP A   7       9.628  20.508  19.621  0.00  0.00    +0.150 HD
BRANCH   9  11
ATOM     11  CA  ASP A   7       7.740  20.507  20.722  0.00  0.00    +0.160 C 
BRANCH  11  12
ATOM     12  C   ASP A   7       7.765  19.972  22.155  0.00  0.00    +0.241 C 
ATOM     13  O   ASP A   7       6.780  20.091  22.884  0.00  0.00    -0.273 OA
ATOM     14  N   ASP A   8       8.895  19.367  22.463  0.00  0.00    -0.297 N 
ATOM     15  H   ASP A   8       9.690  19.409  21.794  0.00  0.00    +0.150 HD
BRANCH  14  16
ATOM     16  CA  ASP A   8       9.062  18.637  23.723  0.00  0.00    +0.160 C 
BRANCH  16  17
ATOM     17  C   ASP A   8      10.263  19.173  24.490  0.00  0.00    +0.241 C 
ATOM     18  N   THR A   9      10.328  18.829  25.767  0.00  0.00    -0.295 N 
ATOM     19  H   THR A   9       9.560  18.254  26.169  0.00  0.00    +0.150 HD
ATOM     20  O   ASP A   8      11.127  19.869  23.970  0.00  0.00    -0.273 OA
BRANCH  18  21
ATOM     21  CA  THR A   9      11.422  19.220  26.624  0.00  0.00    +0.176 C 
BRANCH  21  22
ATOM     22  C   THR A   9      12.501  18.159  26.624  0.00  0.00    +0.243 C 
ATOM     23  O   THR A   9      12.158  16.983  26.759  0.00  0.00    -0.273 OA
ATOM     24  N   VAL A  10      13.752  18.567  26.452  0.00  0.00    -0.298 N 
ATOM     25  H   VAL A  10      13.940  19.589  26.401  0.00  0.00    +0.150 HD
BRANCH  24  26
ATOM     26  CA  VAL A  10      14.872  17.644  26.332  0.00  0.00    +0.137 C 
BRANCH  26  27
ATOM     27  CB  VAL A  10      15.453  17.560  24.903  0.00  0.00    +0.026 C 
ATOM     28  CG2 VAL A  10      16.567  16.518  24.828  0.00  0.00    +0.002 C 
ATOM     29  CG1 VAL A  10      14.355  17.217  23.913  0.00  0.00    +0.002 C 
ENDBRANCH  26  27
BRANCH  26  30
ATOM     30  C   VAL A  10      15.966  18.113  27.276  0.00  0.00    +0.227 C 
ATOM     31  O   VAL A  10      16.433  19.255  27.197  0.00  0.00    -0.286 OA
ENDBRANCH  26  30
ENDBRANCH  24  26
ENDBRANCH  21  22
BRANCH  21  32
ATOM     32  CB  THR A   9      10.867  19.406  28.054  0.00  0.00    +0.137 C 
ATOM     33  CG2 THR A   9      11.927  19.679  29.087  0.00  0.00    +0.034 C 
BRANCH  32  34
ATOM     34  OG1 THR A   9      10.023  20.563  27.987  0.00  0.00    -0.382 OA
ATOM     35  HG1 THR A   9       9.297  20.403  27.334  0.00  0.00    +0.210 HD
ENDBRANCH  32  34
ENDBRANCH  21  32
ENDBRANCH  18  21
ENDBRANCH  16  17
BRANCH  16  36
ATOM     36  CB  ASP A   8       9.262  17.135  23.465  0.00  0.00    +0.143 C 
BRANCH  36  37
ATOM     37  CG  ASP A   8       8.092  16.493  22.728  0.00  0.00    +0.367 C 
ATOM     38  OD2 ASP A   8       6.927  16.837  23.022  0.00  0.00    -0.246 OA
ATOM     39  OD1 ASP A   8       8.325  15.650  21.839  0.00  0.00    -0.246 OA
ENDBRANCH  36  37
ENDBRANCH  16  36
ENDBRANCH  14  16
ENDBRANCH  11  12
BRANCH  11  40
ATOM     40  CB  ASP A   7       7.346  19.354  19.809  0.00  0.00    +0.143 C 
BRANCH  40  41
ATOM     41  CG  ASP A   7       7.080  19.735  18.362  0.00  0.00    +0.367 C 
ATOM     42  OD2 ASP A   7       6.789  20.910  18.043  0.00  0.00    -0.246 OA
ATOM     43  OD1 ASP A   7       7.161  18.797  17.515  0.00  0.00    -0.246 OA
ENDBRANCH  40  41
ENDBRANCH  11  40
ENDBRANCH   9  11
ENDBRANCH   5   7
ENDBRANCH   2   5
BRANCH   1  44
ATOM     44  CA  GLY A   5      10.719  25.825  18.430  0.00  0.00    +0.176 C 
BRANCH  44  47
ATOM     45  C   THR A   4       9.402  26.953  20.091  0.00  0.00    +0.243 C 
ATOM     46  O   THR A   4       8.331  26.555  19.628  0.00  0.00    -0.273 OA
ATOM     47  N   GLY A   5      10.607  26.689  19.618  0.00  0.00    -0.295 N 
ATOM     48  H   GLY A   5      11.456  27.082  20.073  0.00  0.00    +0.150 HD
BRANCH  45  49
ATOM     49  CA  THR A   4       9.323  27.855  21.319  0.00  0.00    +0.176 C 
BRANCH  49  52
ATOM     50  C   ASP A   3      11.154  26.934  22.596  0.00  0.00    +0.241 C 
ATOM     51  O   ASP A   3      10.584  25.833  22.652  0.00  0.00    -0.273 OA
ATOM     52  N   THR A   4      10.642  27.975  21.933  0.00  0.00    -0.295 N 
ATOM     53  H   THR A   4      11.178  28.863  21.855  0.00  0.00    +0.150 HD
BRANCH  50  54
ATOM     54  CA  ASP A   3      12.478  27.161  23.300  0.00  0.00    +0.160 C 
BRANCH  54  56
ATOM     55  C   LEU A   2      12.836  28.470  25.320  0.00  0.00    +0.241 C 
ATOM     56  N   ASP A   3      12.371  27.364  24.739  0.00  0.00    -0.297 N 
ATOM     57  H   ASP A   3      11.923  26.631  25.325  0.00  0.00    +0.150 HD
ATOM     58  O   LEU A   2      13.203  29.471  24.677  0.00  0.00    -0.273 OA
BRANCH  55  59
ATOM     59  CA  LEU A   2      12.964  28.512  26.831  0.00  0.00    +0.149 C 
BRANCH  59  61
ATOM     60  C   LEU A   1      15.078  27.368  27.111  0.00  0.00    +0.238 C 
ATOM     61  N   LEU A   2      14.392  28.506  27.200  0.00  0.00    -0.297 N 
ATOM     62  H   LEU A   2      14.857  29.378  27.525  0.00  0.00    +0.150 HD
ATOM     63  O   LEU A   1      14.505  26.287  26.865  0.00  0.00    -0.274 OA
BRANCH  60  64
ATOM     64  CA  LEU A   1      16.572  27.391  27.327  0.00  0.00    +0.145 C 
BRANCH  64  65
ATOM     65  N   LEU A   1      17.028  26.481  28.390  0.00  0.00    -0.238 NA
ATOM     66  H   LEU A   1      17.259  25.502  28.127  0.00  0.00    +0.142 HD
ENDBRANCH  64  65
BRANCH  64  67
ATOM     67  CB  LEU A   1      17.331  26.950  26.075  0.00  0.00    +0.026 C 
BRANCH  67  68
ATOM     68  CG  LEU A   1      17.426  27.820  24.838  0.00  0.00    +0.002 C 
ATOM     69  CD2 LEU A   1      18.014  29.178  25.166  0.00  0.00    +0.000 C 
ATOM     70  CD1 LEU A   1      18.278  27.100  23.783  0.00  0.00    +0.000 C 
ENDBRANCH  67  68
ENDBRANCH  64  67
ENDBRANCH  60  64
ENDBRANCH  59  61
BRANCH  59  71
ATOM     71  CB  LEU A   2      12.276  29.733  27.421  0.00  0.00    +0.029 C 
BRANCH  71  72
ATOM     72  CG  LEU A   2      12.372  29.871  28.943  0.00  0.00    +0.002 C 
ATOM     73  CD2 LEU A   2      11.939  28.579  29.608  0.00  0.00    +0.000 C 
ATOM     74  CD1 LEU A   2      11.553  31.052  29.442  0.00  0.00    +0.000 C 
ENDBRANCH  71  72
ENDBRANCH  59  71
ENDBRANCH  55  59
ENDBRANCH  54  56
BRANCH  54  75
ATOM     75  CB  ASP A   3      13.338  25.907  23.045  0.00  0.00    +0.143 C 
BRANCH  75  76
ATOM     76  CG  ASP A   3      13.743  25.715  21.602  0.00  0.00    +0.367 C 
ATOM     77  OD2 ASP A   3      14.575  24.827  21.334  0.00  0.00    -0.246 OA
ATOM     78  OD1 ASP A   3      13.221  26.460  20.745  0.00  0.00    -0.246 OA
ENDBRANCH  75  76
ENDBRANCH  54  75
ENDBRANCH  50  54
ENDBRANCH  49  52
BRANCH  49  79
ATOM     79  CB  THR A   4       8.785  29.219  20.901  0.00  0.00    +0.137 C 
ATOM     80  CG2 THR A   4       8.629  30.114  22.130  0.00  0.00    +0.034 C 
BRANCH  79  81
ATOM     81  OG1 THR A   4       9.757  29.870  20.075  0.00  0.00    -0.382 OA
ATOM     82  HG1 THR A   4       9.929  29.318  19.272  0.00  0.00    +0.210 HD
ENDBRANCH  79  81
ENDBRANCH  49  79
ENDBRANCH  45  49
ENDBRANCH  44  47
ENDBRANCH   1  44
TORSDOF 35
REMARK  Name = ../refined-set-2016/4zls/4zls_pocket.pdb
REMARK  232 active torsions:
REMARK  status: ('A' for Active; 'I' for Inactive)
REMARK    1  A    between atoms: _1  and  _3
REMARK    2  A    between atoms: _3  and  _4
REMARK    3  A    between atoms: _3  and  _6
REMARK    4  A    between atoms: _6  and  _7
REMARK    5  A    between atoms: _7  and  _8
REMARK    6  A    between atoms: _8  and  _9
REMARK    7  A    between atoms: _18  and  _20
REMARK    8  A    between atoms: _20  and  _21
REMARK    9  A    between atoms: _20  and  _23
REMARK   10  A    between atoms: _23  and  _24
REMARK   11  A    between atoms: _27  and  _29
REMARK   12  A    between atoms: _29  and  _30
REMARK   13  A    between atoms: _29  and  _32
REMARK   14  A    between atoms: _32  and  _33
REMARK   15  A    between atoms: _36  and  _38
REMARK   16  A    between atoms: _38  and  _39
REMARK   17  A    between atoms: _38  and  _41
REMARK   18  A    between atoms: _41  and  _42
REMARK   19  A    between atoms: _45  and  _47
REMARK   20  A    between atoms: _47  and  _48
REMARK   21  A    between atoms: _47  and  _50
REMARK   22  A    between atoms: _50  and  _51
REMARK   23  A    between atoms: _54  and  _56
REMARK   24  A    between atoms: _56  and  _57
REMARK   25  A    between atoms: _59  and  _61
REMARK   26  A    between atoms: _61  and  _62
REMARK   27  A    between atoms: _65  and  _67
REMARK   28  A    between atoms: _67  and  _68
REMARK   29  A    between atoms: _67  and  _70
REMARK   30  A    between atoms: _70  and  _71
REMARK   31  A    between atoms: _74  and  _76
REMARK   32  A    between atoms: _76  and  _77
REMARK   33  A    between atoms: _76  and  _79
REMARK   34  A    between atoms: _79  and  _80
REMARK   35  A    between atoms: _83  and  _85
REMARK   36  A    between atoms: _85  and  _86
REMARK   37  A    between atoms: _85  and  _88
REMARK   38  A    between atoms: _88  and  _89
REMARK   39  A    between atoms: _92  and  _94
REMARK   40  A    between atoms: _94  and  _95
REMARK   41  A    between atoms: _94  and  _97
REMARK   42  A    between atoms: _100  and  _102
REMARK   43  A    between atoms: _102  and  _103
REMARK   44  A    between atoms: _102  and  _105
REMARK   45  A    between atoms: _105  and  _106
REMARK   46  A    between atoms: _106  and  _107
REMARK   47  A    between atoms: _107  and  _108
REMARK   48  A    between atoms: _108  and  _109
REMARK   49  A    between atoms: _113  and  _115
REMARK   50  A    between atoms: _115  and  _116
REMARK   51  A    between atoms: _115  and  _118
REMARK   52  A    between atoms: _118  and  _119
REMARK   53  A    between atoms: _119  and  _120
REMARK   54  A    between atoms: _122  and  _124
REMARK   55  A    between atoms: _124  and  _125
REMARK   56  A    between atoms: _124  and  _127
REMARK   57  A    between atoms: _127  and  _128
REMARK   58  A    between atoms: _131  and  _133
REMARK   59  A    between atoms: _133  and  _134
REMARK   60  A    between atoms: _136  and  _138
REMARK   61  A    between atoms: _138  and  _139
REMARK   62  A    between atoms: _141  and  _143
REMARK   63  A    between atoms: _143  and  _144
REMARK   64  A    between atoms: _143  and  _146
REMARK   65  A    between atoms: _146  and  _147
REMARK   66  A    between atoms: _150  and  _152
REMARK   67  A    between atoms: _152  and  _153
REMARK   68  A    between atoms: _155  and  _157
REMARK   69  A    between atoms: _157  and  _158
REMARK   70  A    between atoms: _160  and  _162
REMARK   71  A    between atoms: _162  and  _163
REMARK   72  A    between atoms: _162  and  _165
REMARK   73  A    between atoms: _165  and  _166
REMARK   74  A    between atoms: _172  and  _174
REMARK   75  A    between atoms: _174  and  _175
REMARK   76  A    between atoms: _174  and  _177
REMARK   77  A    between atoms: _177  and  _178
REMARK   78  A    between atoms: _181  and  _183
REMARK   79  A    between atoms: _183  and  _184
REMARK   80  A    between atoms: _183  and  _186
REMARK   81  A    between atoms: _186  and  _187
REMARK   82  A    between atoms: _190  and  _192
REMARK   83  A    between atoms: _192  and  _193
REMARK   84  A    between atoms: _192  and  _195
REMARK   85  A    between atoms: _195  and  _196
REMARK   86  A    between atoms: _200  and  _201
REMARK   87  A    between atoms: _206  and  _208
REMARK   88  A    between atoms: _208  and  _209
REMARK   89  A    between atoms: _208  and  _211
REMARK   90  A    between atoms: _214  and  _216
REMARK   91  A    between atoms: _216  and  _217
REMARK   92  A    between atoms: _216  and  _219
REMARK   93  A    between atoms: _219  and  _220
REMARK   94  A    between atoms: _225  and  _227
REMARK   95  A    between atoms: _227  and  _228
REMARK   96  A    between atoms: _227  and  _230
REMARK   97  A    between atoms: _230  and  _231
REMARK   98  A    between atoms: _234  and  _236
REMARK   99  A    between atoms: _236  and  _237
REMARK  100  A    between atoms: _239  and  _241
REMARK  101  A    between atoms: _241  and  _242
REMARK  102  A    between atoms: _241  and  _244
REMARK  103  A    between atoms: _244  and  _245
REMARK  104  A    between atoms: _245  and  _246
REMARK  105  A    between atoms: _246  and  _247
REMARK  106  A    between atoms: _256  and  _258
REMARK  107  A    between atoms: _258  and  _259
REMARK  108  A    between atoms: _258  and  _261
REMARK  109  A    between atoms: _261  and  _262
REMARK  110  A    between atoms: _267  and  _269
REMARK  111  A    between atoms: _269  and  _270
REMARK  112  A    between atoms: _269  and  _272
REMARK  113  A    between atoms: _272  and  _273
REMARK  114  A    between atoms: _273  and  _274
REMARK  115  A    between atoms: _274  and  _275
REMARK  116  A    between atoms: _284  and  _286
REMARK  117  A    between atoms: _286  and  _287
REMARK  118  A    between atoms: _286  and  _289
REMARK  119  A    between atoms: _289  and  _290
REMARK  120  A    between atoms: _293  and  _295
REMARK  121  A    between atoms: _295  and  _296
REMARK  122  A    between atoms: _295  and  _298
REMARK  123  A    between atoms: _298  and  _299
REMARK  124  A    between atoms: _302  and  _304
REMARK  125  A    between atoms: _304  and  _305
REMARK  126  A    between atoms: _304  and  _307
REMARK  127  A    between atoms: _307  and  _308
REMARK  128  A    between atoms: _311  and  _313
REMARK  129  A    between atoms: _313  and  _314
REMARK  130  A    between atoms: _313  and  _316
REMARK  131  A    between atoms: _316  and  _317
REMARK  132  A    between atoms: _320  and  _322
REMARK  133  A    between atoms: _322  and  _323
REMARK  134  A    between atoms: _322  and  _325
REMARK  135  A    between atoms: _325  and  _326
REMARK  136  A    between atoms: _329  and  _331
REMARK  137  A    between atoms: _331  and  _332
REMARK  138  A    between atoms: _334  and  _336
REMARK  139  A    between atoms: _336  and  _337
REMARK  140  A    between atoms: _340  and  _342
REMARK  141  A    between atoms: _342  and  _343
REMARK  142  A    between atoms: _342  and  _345
REMARK  143  A    between atoms: _345  and  _346
REMARK  144  A    between atoms: _349  and  _351
REMARK  145  A    between atoms: _351  and  _352
REMARK  146  A    between atoms: _351  and  _354
REMARK  147  A    between atoms: _354  and  _355
REMARK  148  A    between atoms: _358  and  _360
REMARK  149  A    between atoms: _360  and  _361
REMARK  150  A    between atoms: _360  and  _363
REMARK  151  A    between atoms: _363  and  _364
REMARK  152  A    between atoms: _367  and  _369
REMARK  153  A    between atoms: _369  and  _370
REMARK  154  A    between atoms: _369  and  _372
REMARK  155  A    between atoms: _375  and  _377
REMARK  156  A    between atoms: _377  and  _378
REMARK  157  A    between atoms: _377  and  _380
REMARK  158  A    between atoms: _380  and  _381
REMARK  159  A    between atoms: _381  and  _382
REMARK  160  A    between atoms: _382  and  _383
REMARK  161  A    between atoms: _383  and  _384
REMARK  162  A    between atoms: _388  and  _390
REMARK  163  A    between atoms: _390  and  _391
REMARK  164  A    between atoms: _390  and  _393
REMARK  165  A    between atoms: _393  and  _394
REMARK  166  A    between atoms: _394  and  _395
REMARK  167  A    between atoms: _397  and  _399
REMARK  168  A    between atoms: _399  and  _400
REMARK  169  A    between atoms: _399  and  _402
REMARK  170  A    between atoms: _402  and  _403
REMARK  171  A    between atoms: _406  and  _408
REMARK  172  A    between atoms: _408  and  _409
REMARK  173  A    between atoms: _411  and  _413
REMARK  174  A    between atoms: _413  and  _414
REMARK  175  A    between atoms: _416  and  _418
REMARK  176  A    between atoms: _418  and  _419
REMARK  177  A    between atoms: _418  and  _421
REMARK  178  A    between atoms: _421  and  _422
REMARK  179  A    between atoms: _425  and  _427
REMARK  180  A    between atoms: _427  and  _428
REMARK  181  A    between atoms: _430  and  _432
REMARK  182  A    between atoms: _432  and  _433
REMARK  183  A    between atoms: _435  and  _437
REMARK  184  A    between atoms: _437  and  _438
REMARK  185  A    between atoms: _437  and  _440
REMARK  186  A    between atoms: _440  and  _441
REMARK  187  A    between atoms: _447  and  _449
REMARK  188  A    between atoms: _449  and  _450
REMARK  189  A    between atoms: _449  and  _452
REMARK  190  A    between atoms: _452  and  _453
REMARK  191  A    between atoms: _456  and  _458
REMARK  192  A    between atoms: _458  and  _459
REMARK  193  A    between atoms: _458  and  _461
REMARK  194  A    between atoms: _464  and  _466
REMARK  195  A    between atoms: _466  and  _467
REMARK  196  A    between atoms: _466  and  _469
REMARK  197  A    between atoms: _469  and  _470
REMARK  198  A    between atoms: _473  and  _475
REMARK  199  A    between atoms: _475  and  _476
REMARK  200  A    between atoms: _479  and  _480
REMARK  201  A    between atoms: _485  and  _487
REMARK  202  A    between atoms: _487  and  _488
REMARK  203  A    between atoms: _487  and  _490
REMARK  204  A    between atoms: _490  and  _491
REMARK  205  A    between atoms: _495  and  _496
REMARK  206  A    between atoms: _501  and  _503
REMARK  207  A    between atoms: _503  and  _504
REMARK  208  A    between atoms: _503  and  _506
REMARK  209  A    between atoms: _509  and  _511
REMARK  210  A    between atoms: _511  and  _512
REMARK  211  A    between atoms: _511  and  _514
REMARK  212  A    between atoms: _514  and  _515
REMARK  213  A    between atoms: _520  and  _522
REMARK  214  A    between atoms: _522  and  _523
REMARK  215  A    between atoms: _522  and  _525
REMARK  216  A    between atoms: _525  and  _526
REMARK  217  A    between atoms: _529  and  _531
REMARK  218  A    between atoms: _531  and  _532
REMARK  219  A    between atoms: _531  and  _534
REMARK  220  A    between atoms: _534  and  _535
REMARK  221  A    between atoms: _538  and  _540
REMARK  222  A    between atoms: _540  and  _541
REMARK  223  A    between atoms: _543  and  _545
REMARK  224  A    between atoms: _545  and  _546
REMARK  225  A    between atoms: _545  and  _548
REMARK  226  A    between atoms: _548  and  _549
REMARK  227  A    between atoms: _549  and  _550
REMARK  228  A    between atoms: _550  and  _551
REMARK  229  A    between atoms: _560  and  _562
REMARK  230  A    between atoms: _562  and  _563
REMARK  231  A    between atoms: _562  and  _565
REMARK  232  A    between atoms: _565  and  _566
REMARK                            x       y       z     vdW  Elec       q    Type
REMARK                         _______ _______ _______ _____ _____    ______ ____
ROOT
ATOM      1  C   GLY A   5      17.105  18.849  13.788  0.00  0.00    +0.243 C 
ATOM      2  N   ILE A   6      17.941  19.879  13.896  0.00  0.00    -0.297 N 
ATOM      3  H   ILE A   6      18.109  20.291  14.836  0.00  0.00    +0.150 HD
ATOM      4  O   GLY A   5      16.875  18.260  12.728  0.00  0.00    -0.273 OA
ENDROOT
BRANCH   2   5
ATOM      5  CA  ILE A   6      18.630  20.452  12.746  0.00  0.00    +0.149 C 
BRANCH   5   6
ATOM      6  C   ILE A   6      19.444  19.419  12.000  0.00  0.00    +0.241 C 
ATOM      7  N   GLY A   7      20.070  18.468  12.695  0.00  0.00    -0.295 N 
ATOM      8  H   GLY A   7      19.925  18.347  13.718  0.00  0.00    +0.150 HD
ATOM      9  O   ILE A   6      19.558  19.455  10.762  0.00  0.00    -0.273 OA
BRANCH   7  10
ATOM     10  CA  GLY A   7      20.979  17.599  11.928  0.00  0.00    +0.176 C 
BRANCH  10  11
ATOM     11  C   GLY A   7      20.395  16.239  11.659  0.00  0.00    +0.243 C 
ATOM     12  N   GLY A   8      19.189  15.915  12.127  0.00  0.00    -0.295 N 
ATOM     13  H   GLY A   8      18.609  16.619  12.627  0.00  0.00    +0.150 HD
ATOM     14  O   GLY A   7      21.051  15.428  11.002  0.00  0.00    -0.273 OA
BRANCH  12  15
ATOM     15  CA  GLY A   8      18.693  14.547  11.925  0.00  0.00    +0.176 C 
BRANCH  15  16
ATOM     16  C   GLY A   8      17.987  14.042  13.183  0.00  0.00    +0.243 C 
ATOM     17  O   GLY A   8      17.690  14.836  14.089  0.00  0.00    -0.273 OA
ATOM     18  N   PHE A   9      17.711  12.742  13.229  0.00  0.00    -0.297 N 
ATOM     19  H   PHE A   9      18.067  12.128  12.469  0.00  0.00    +0.150 HD
BRANCH  18  20
ATOM     20  CA  PHE A   9      16.925  12.143  14.310  0.00  0.00    +0.153 C 
BRANCH  20  21
ATOM     21  C   PHE A   9      17.809  11.441  15.328  0.00  0.00    +0.241 C 
ATOM     22  N   ILE A  10      17.403  11.412  16.603  0.00  0.00    -0.298 N 
ATOM     23  H   ILE A  10      16.551  11.943  16.875  0.00  0.00    +0.150 HD
ATOM     24  O   PHE A   9      18.886  10.918  15.001  0.00  0.00    -0.273 OA
BRANCH  22  25
ATOM     25  CA  ILE A  10      18.118  10.662  17.613  0.00  0.00    +0.137 C 
BRANCH  25  26
ATOM     26  C   ILE A  10      17.146   9.986  18.598  0.00  0.00    +0.227 C 
ATOM     27  O   ILE A  10      15.990  10.412  18.676  0.00  0.00    -0.286 OA
ENDBRANCH  25  26
BRANCH  25  28
ATOM     28  CB  ILE A  10      19.060  11.507  18.473  0.00  0.00    +0.026 C 
ATOM     29  CG2 ILE A  10      20.130  12.127  17.571  0.00  0.00    +0.002 C 
BRANCH  28  30
ATOM     30  CG1 ILE A  10      18.347  12.589  19.296  0.00  0.00    +0.002 C 
ATOM     31  CD1 ILE A  10      19.221  13.252  20.341  0.00  0.00    +0.000 C 
ENDBRANCH  28  30
ENDBRANCH  25  28
ENDBRANCH  22  25
ENDBRANCH  20  21
BRANCH  20  32
ATOM     32  CB  PHE A   9      15.877  11.188  13.705  0.00  0.00    +0.055 C 
BRANCH  32  33
ATOM     33  CG  PHE A   9      14.643  11.902  13.173  0.00  0.00    -0.020 A 
ATOM     34  CD2 PHE A   9      13.519  12.090  13.950  0.00  0.00    -0.004 A 
ATOM     35  CE2 PHE A   9      12.397  12.750  13.491  0.00  0.00    -0.000 A 
ATOM     36  CZ  PHE A   9      12.394  13.263  12.200  0.00  0.00    -0.000 A 
ATOM     37  CE1 PHE A   9      13.507  13.070  11.399  0.00  0.00    -0.000 A 
ATOM     38  CD1 PHE A   9      14.612  12.394  11.877  0.00  0.00    -0.004 A 
ENDBRANCH  32  33
ENDBRANCH  20  32
ENDBRANCH  18  20
ENDBRANCH  15  16
ENDBRANCH  12  15
ENDBRANCH  10  11
ENDBRANCH   7  10
ENDBRANCH   5   6
BRANCH   5  39
ATOM     39  CB  ILE A   6      19.536  21.621  13.192  0.00  0.00    +0.027 C 
ATOM     40  CG2 ILE A   6      20.860  21.145  13.782  0.00  0.00    +0.002 C 
BRANCH  39  41
ATOM     41  CG1 ILE A   6      19.787  22.668  12.101  0.00  0.00    +0.002 C 
ATOM     42  CD1 ILE A   6      18.512  23.090  11.396  0.00  0.00    +0.000 C 
ENDBRANCH  39  41
ENDBRANCH   5  39
ENDBRANCH   2   5
BRANCH   1  43
ATOM     43  CA  GLY A   5      16.449  18.387  15.086  0.00  0.00    +0.176 C 
BRANCH  43  46
ATOM     44  C   GLY A   4      14.755  16.688  15.161  0.00  0.00    +0.243 C 
ATOM     45  O   GLY A   4      13.893  17.507  15.468  0.00  0.00    -0.273 OA
ATOM     46  N   GLY A   5      16.043  16.997  14.967  0.00  0.00    -0.295 N 
ATOM     47  H   GLY A   5      16.738  16.258  14.736  0.00  0.00    +0.150 HD
BRANCH  44  48
ATOM     48  CA  GLY A   4      14.402  15.223  14.975  0.00  0.00    +0.176 C 
BRANCH  48  51
ATOM     49  C   ILE A   3      14.158  13.772  16.888  0.00  0.00    +0.241 C 
ATOM     50  O   ILE A   3      15.271  13.305  16.728  0.00  0.00    -0.273 OA
ATOM     51  N   GLY A   4      13.634  14.723  16.115  0.00  0.00    -0.295 N 
ATOM     52  H   GLY A   4      12.689  15.106  16.320  0.00  0.00    +0.150 HD
BRANCH  49  53
ATOM     53  CA  ILE A   3      13.228  13.263  17.991  0.00  0.00    +0.149 C 
BRANCH  53  55
ATOM     54  C   MET A   2      12.502  10.989  18.246  0.00  0.00    +0.241 C 
ATOM     55  N   ILE A   3      13.517  11.853  18.253  0.00  0.00    -0.297 N 
ATOM     56  H   ILE A   3      14.489  11.533  18.440  0.00  0.00    +0.150 HD
ATOM     57  O   MET A   2      11.300  11.223  18.075  0.00  0.00    -0.273 OA
BRANCH  54  58
ATOM     58  CA  MET A   2      12.855   9.515  18.413  0.00  0.00    +0.149 C 
BRANCH  58  61
ATOM     59  C   LYS A   1      12.401   8.534  20.587  0.00  0.00    +0.238 C 
ATOM     60  O   LYS A   1      13.575   8.554  20.925  0.00  0.00    -0.274 OA
ATOM     61  N   MET A   2      11.964   8.920  19.391  0.00  0.00    -0.297 N 
ATOM     62  H   MET A   2      10.960   8.792  19.152  0.00  0.00    +0.150 HD
BRANCH  59  63
ATOM     63  CA  LYS A   1      11.312   8.051  21.534  0.00  0.00    +0.145 C 
BRANCH  63  64
ATOM     64  N   LYS A   1      11.834   6.996  22.383  0.00  0.00    -0.238 NA
ATOM     65  H   LYS A   1      12.858   6.937  22.558  0.00  0.00    +0.142 HD
ENDBRANCH  63  64
BRANCH  63  66
ATOM     66  CB  LYS A   1      10.787   9.246  22.351  0.00  0.00    +0.026 C 
BRANCH  66  67
ATOM     67  CG  LYS A   1       9.732  10.051  21.579  0.00  0.00    -0.000 C 
BRANCH  67  68
ATOM     68  CD  LYS A   1       9.369  11.327  22.302  0.00  0.00    -0.024 C 
BRANCH  68  69
ATOM     69  CE  LYS A   1       8.759  12.337  21.345  0.00  0.00    -0.086 C 
BRANCH  69  70
ATOM     70  NZ  LYS A   1       7.551  11.765  20.689  0.00  0.00    +0.380 N 
ATOM     71  HZ1 LYS A   1       6.848  11.517  21.415  0.00  0.00    -0.089 HD
ATOM     72  HZ2 LYS A   1       7.818  10.912  20.158  0.00  0.00    -0.089 HD
ATOM     73  HZ3 LYS A   1       7.146  12.468  20.038  0.00  0.00    -0.089 HD
ENDBRANCH  69  70
ENDBRANCH  68  69
ENDBRANCH  67  68
ENDBRANCH  66  67
ENDBRANCH  63  66
ENDBRANCH  59  63
ENDBRANCH  58  61
BRANCH  58  74
ATOM     74  CB  MET A   2      12.689   8.919  17.009  0.00  0.00    +0.041 C 
BRANCH  74  75
ATOM     75  CG  MET A   2      12.907   7.415  16.954  0.00  0.00    +0.060 C 
BRANCH  75  76
ATOM     76  SD  MET A   2      14.633   7.061  17.328  0.00  0.00    -0.139 S 
ATOM     77  CE  MET A   2      15.442   7.861  15.936  0.00  0.00    +0.069 C 
ENDBRANCH  75  76
ENDBRANCH  74  75
ENDBRANCH  58  74
ENDBRANCH  54  58
ENDBRANCH  53  55
BRANCH  53  78
ATOM     78  CB  ILE A   3      13.358  14.150  19.236  0.00  0.00    +0.027 C 
ATOM     79  CG2 ILE A   3      12.281  13.709  20.229  0.00  0.00    +0.002 C 
BRANCH  78  80
ATOM     80  CG1 ILE A   3      14.750  14.189  19.845  0.00  0.00    +0.002 C 
ATOM     81  CD1 ILE A   3      14.873  15.137  21.041  0.00  0.00    +0.000 C 
ENDBRANCH  78  80
ENDBRANCH  53  78
ENDBRANCH  49  53
ENDBRANCH  48  51
ENDBRANCH  44  48
ENDBRANCH  43  46
ENDBRANCH   1  43
TORSDOF 36
REMARK  Name = ../refined-set-2016/4zls/4zls_pocket.pdb
REMARK  232 active torsions:
REMARK  status: ('A' for Active; 'I' for Inactive)
REMARK    1  A    between atoms: _1  and  _3
REMARK    2  A    between atoms: _3  and  _4
REMARK    3  A    between atoms: _3  and  _6
REMARK    4  A    between atoms: _6  and  _7
REMARK    5  A    between atoms: _7  and  _8
REMARK    6  A    between atoms: _8  and  _9
REMARK    7  A    between atoms: _18  and  _20
REMARK    8  A    between atoms: _20  and  _21
REMARK    9  A    between atoms: _20  and  _23
REMARK   10  A    between atoms: _23  and  _24
REMARK   11  A    between atoms: _27  and  _29
REMARK   12  A    between atoms: _29  and  _30
REMARK   13  A    between atoms: _29  and  _32
REMARK   14  A    between atoms: _32  and  _33
REMARK   15  A    between atoms: _36  and  _38
REMARK   16  A    between atoms: _38  and  _39
REMARK   17  A    between atoms: _38  and  _41
REMARK   18  A    between atoms: _41  and  _42
REMARK   19  A    between atoms: _45  and  _47
REMARK   20  A    between atoms: _47  and  _48
REMARK   21  A    between atoms: _47  and  _50
REMARK   22  A    between atoms: _50  and  _51
REMARK   23  A    between atoms: _54  and  _56
REMARK   24  A    between atoms: _56  and  _57
REMARK   25  A    between atoms: _59  and  _61
REMARK   26  A    between atoms: _61  and  _62
REMARK   27  A    between atoms: _65  and  _67
REMARK   28  A    between atoms: _67  and  _68
REMARK   29  A    between atoms: _67  and  _70
REMARK   30  A    between atoms: _70  and  _71
REMARK   31  A    between atoms: _74  and  _76
REMARK   32  A    between atoms: _76  and  _77
REMARK   33  A    between atoms: _76  and  _79
REMARK   34  A    between atoms: _79  and  _80
REMARK   35  A    between atoms: _83  and  _85
REMARK   36  A    between atoms: _85  and  _86
REMARK   37  A    between atoms: _85  and  _88
REMARK   38  A    between atoms: _88  and  _89
REMARK   39  A    between atoms: _92  and  _94
REMARK   40  A    between atoms: _94  and  _95
REMARK   41  A    between atoms: _94  and  _97
REMARK   42  A    between atoms: _100  and  _102
REMARK   43  A    between atoms: _102  and  _103
REMARK   44  A    between atoms: _102  and  _105
REMARK   45  A    between atoms: _105  and  _106
REMARK   46  A    between atoms: _106  and  _107
REMARK   47  A    between atoms: _107  and  _108
REMARK   48  A    between atoms: _108  and  _109
REMARK   49  A    between atoms: _113  and  _115
REMARK   50  A    between atoms: _115  and  _116
REMARK   51  A    between atoms: _115  and  _118
REMARK   52  A    between atoms: _118  and  _119
REMARK   53  A    between atoms: _119  and  _120
REMARK   54  A    between atoms: _122  and  _124
REMARK   55  A    between atoms: _124  and  _125
REMARK   56  A    between atoms: _124  and  _127
REMARK   57  A    between atoms: _127  and  _128
REMARK   58  A    between atoms: _131  and  _133
REMARK   59  A    between atoms: _133  and  _134
REMARK   60  A    between atoms: _136  and  _138
REMARK   61  A    between atoms: _138  and  _139
REMARK   62  A    between atoms: _141  and  _143
REMARK   63  A    between atoms: _143  and  _144
REMARK   64  A    between atoms: _143  and  _146
REMARK   65  A    between atoms: _146  and  _147
REMARK   66  A    between atoms: _150  and  _152
REMARK   67  A    between atoms: _152  and  _153
REMARK   68  A    between atoms: _155  and  _157
REMARK   69  A    between atoms: _157  and  _158
REMARK   70  A    between atoms: _160  and  _162
REMARK   71  A    between atoms: _162  and  _163
REMARK   72  A    between atoms: _162  and  _165
REMARK   73  A    between atoms: _165  and  _166
REMARK   74  A    between atoms: _172  and  _174
REMARK   75  A    between atoms: _174  and  _175
REMARK   76  A    between atoms: _174  and  _177
REMARK   77  A    between atoms: _177  and  _178
REMARK   78  A    between atoms: _181  and  _183
REMARK   79  A    between atoms: _183  and  _184
REMARK   80  A    between atoms: _183  and  _186
REMARK   81  A    between atoms: _186  and  _187
REMARK   82  A    between atoms: _190  and  _192
REMARK   83  A    between atoms: _192  and  _193
REMARK   84  A    between atoms: _192  and  _195
REMARK   85  A    between atoms: _195  and  _196
REMARK   86  A    between atoms: _200  and  _201
REMARK   87  A    between atoms: _206  and  _208
REMARK   88  A    between atoms: _208  and  _209
REMARK   89  A    between atoms: _208  and  _211
REMARK   90  A    between atoms: _214  and  _216
REMARK   91  A    between atoms: _216  and  _217
REMARK   92  A    between atoms: _216  and  _219
REMARK   93  A    between atoms: _219  and  _220
REMARK   94  A    between atoms: _225  and  _227
REMARK   95  A    between atoms: _227  and  _228
REMARK   96  A    between atoms: _227  and  _230
REMARK   97  A    between atoms: _230  and  _231
REMARK   98  A    between atoms: _234  and  _236
REMARK   99  A    between atoms: _236  and  _237
REMARK  100  A    between atoms: _239  and  _241
REMARK  101  A    between atoms: _241  and  _242
REMARK  102  A    between atoms: _241  and  _244
REMARK  103  A    between atoms: _244  and  _245
REMARK  104  A    between atoms: _245  and  _246
REMARK  105  A    between atoms: _246  and  _247
REMARK  106  A    between atoms: _256  and  _258
REMARK  107  A    between atoms: _258  and  _259
REMARK  108  A    between atoms: _258  and  _261
REMARK  109  A    between atoms: _261  and  _262
REMARK  110  A    between atoms: _267  and  _269
REMARK  111  A    between atoms: _269  and  _270
REMARK  112  A    between atoms: _269  and  _272
REMARK  113  A    between atoms: _272  and  _273
REMARK  114  A    between atoms: _273  and  _274
REMARK  115  A    between atoms: _274  and  _275
REMARK  116  A    between atoms: _284  and  _286
REMARK  117  A    between atoms: _286  and  _287
REMARK  118  A    between atoms: _286  and  _289
REMARK  119  A    between atoms: _289  and  _290
REMARK  120  A    between atoms: _293  and  _295
REMARK  121  A    between atoms: _295  and  _296
REMARK  122  A    between atoms: _295  and  _298
REMARK  123  A    between atoms: _298  and  _299
REMARK  124  A    between atoms: _302  and  _304
REMARK  125  A    between atoms: _304  and  _305
REMARK  126  A    between atoms: _304  and  _307
REMARK  127  A    between atoms: _307  and  _308
REMARK  128  A    between atoms: _311  and  _313
REMARK  129  A    between atoms: _313  and  _314
REMARK  130  A    between atoms: _313  and  _316
REMARK  131  A    between atoms: _316  and  _317
REMARK  132  A    between atoms: _320  and  _322
REMARK  133  A    between atoms: _322  and  _323
REMARK  134  A    between atoms: _322  and  _325
REMARK  135  A    between atoms: _325  and  _326
REMARK  136  A    between atoms: _329  and  _331
REMARK  137  A    between atoms: _331  and  _332
REMARK  138  A    between atoms: _334  and  _336
REMARK  139  A    between atoms: _336  and  _337
REMARK  140  A    between atoms: _340  and  _342
REMARK  141  A    between atoms: _342  and  _343
REMARK  142  A    between atoms: _342  and  _345
REMARK  143  A    between atoms: _345  and  _346
REMARK  144  A    between atoms: _349  and  _351
REMARK  145  A    between atoms: _351  and  _352
REMARK  146  A    between atoms: _351  and  _354
REMARK  147  A    between atoms: _354  and  _355
REMARK  148  A    between atoms: _358  and  _360
REMARK  149  A    between atoms: _360  and  _361
REMARK  150  A    between atoms: _360  and  _363
REMARK  151  A    between atoms: _363  and  _364
REMARK  152  A    between atoms: _367  and  _369
REMARK  153  A    between atoms: _369  and  _370
REMARK  154  A    between atoms: _369  and  _372
REMARK  155  A    between atoms: _375  and  _377
REMARK  156  A    between atoms: _377  and  _378
REMARK  157  A    between atoms: _377  and  _380
REMARK  158  A    between atoms: _380  and  _381
REMARK  159  A    between atoms: _381  and  _382
REMARK  160  A    between atoms: _382  and  _383
REMARK  161  A    between atoms: _383  and  _384
REMARK  162  A    between atoms: _388  and  _390
REMARK  163  A    between atoms: _390  and  _391
REMARK  164  A    between atoms: _390  and  _393
REMARK  165  A    between atoms: _393  and  _394
REMARK  166  A    between atoms: _394  and  _395
REMARK  167  A    between atoms: _397  and  _399
REMARK  168  A    between atoms: _399  and  _400
REMARK  169  A    between atoms: _399  and  _402
REMARK  170  A    between atoms: _402  and  _403
REMARK  171  A    between atoms: _406  and  _408
REMARK  172  A    between atoms: _408  and  _409
REMARK  173  A    between atoms: _411  and  _413
REMARK  174  A    between atoms: _413  and  _414
REMARK  175  A    between atoms: _416  and  _418
REMARK  176  A    between atoms: _418  and  _419
REMARK  177  A    between atoms: _418  and  _421
REMARK  178  A    between atoms: _421  and  _422
REMARK  179  A    between atoms: _425  and  _427
REMARK  180  A    between atoms: _427  and  _428
REMARK  181  A    between atoms: _430  and  _432
REMARK  182  A    between atoms: _432  and  _433
REMARK  183  A    between atoms: _435  and  _437
REMARK  184  A    between atoms: _437  and  _438
REMARK  185  A    between atoms: _437  and  _440
REMARK  186  A    between atoms: _440  and  _441
REMARK  187  A    between atoms: _447  and  _449
REMARK  188  A    between atoms: _449  and  _450
REMARK  189  A    between atoms: _449  and  _452
REMARK  190  A    between atoms: _452  and  _453
REMARK  191  A    between atoms: _456  and  _458
REMARK  192  A    between atoms: _458  and  _459
REMARK  193  A    between atoms: _458  and  _461
REMARK  194  A    between atoms: _464  and  _466
REMARK  195  A    between atoms: _466  and  _467
REMARK  196  A    between atoms: _466  and  _469
REMARK  197  A    between atoms: _469  and  _470
REMARK  198  A    between atoms: _473  and  _475
REMARK  199  A    between atoms: _475  and  _476
REMARK  200  A    between atoms: _479  and  _480
REMARK  201  A    between atoms: _485  and  _487
REMARK  202  A    between atoms: _487  and  _488
REMARK  203  A    between atoms: _487  and  _490
REMARK  204  A    between atoms: _490  and  _491
REMARK  205  A    between atoms: _495  and  _496
REMARK  206  A    between atoms: _501  and  _503
REMARK  207  A    between atoms: _503  and  _504
REMARK  208  A    between atoms: _503  and  _506
REMARK  209  A    between atoms: _509  and  _511
REMARK  210  A    between atoms: _511  and  _512
REMARK  211  A    between atoms: _511  and  _514
REMARK  212  A    between atoms: _514  and  _515
REMARK  213  A    between atoms: _520  and  _522
REMARK  214  A    between atoms: _522  and  _523
REMARK  215  A    between atoms: _522  and  _525
REMARK  216  A    between atoms: _525  and  _526
REMARK  217  A    between atoms: _529  and  _531
REMARK  218  A    between atoms: _531  and  _532
REMARK  219  A    between atoms: _531  and  _534
REMARK  220  A    between atoms: _534  and  _535
REMARK  221  A    between atoms: _538  and  _540
REMARK  222  A    between atoms: _540  and  _541
REMARK  223  A    between atoms: _543  and  _545
REMARK  224  A    between atoms: _545  and  _546
REMARK  225  A    between atoms: _545  and  _548
REMARK  226  A    between atoms: _548  and  _549
REMARK  227  A    between atoms: _549  and  _550
REMARK  228  A    between atoms: _550  and  _551
REMARK  229  A    between atoms: _560  and  _562
REMARK  230  A    between atoms: _562  and  _563
REMARK  231  A    between atoms: _562  and  _565
REMARK  232  A    between atoms: _565  and  _566
REMARK                            x       y       z     vdW  Elec       q    Type
REMARK                         _______ _______ _______ _____ _____    ______ ____
ROOT
ATOM      1  CA  VAL A   1      16.070   9.661  23.713  0.00  0.00    +0.133 C 
ENDROOT
BRANCH   1   2
ATOM      2  CB  VAL A   1      15.603  11.135  23.771  0.00  0.00    +0.023 C 
ATOM      3  CG2 VAL A   1      14.195  11.282  23.220  0.00  0.00    +0.002 C 
ATOM      4  CG1 VAL A   1      16.586  11.995  22.984  0.00  0.00    +0.002 C 
ENDBRANCH   1   2
BRANCH   1   5
ATOM      5  N   VAL A   1      15.976   9.115  22.365  0.00  0.00    -0.239 NA
ATOM      6  H   VAL A   1      15.054   8.838  21.972  0.00  0.00    +0.142 HD
ENDBRANCH   1   5
BRANCH   1   7
ATOM      7  C   VAL A   1      15.229   8.808  24.652  0.00  0.00    +0.224 C 
ATOM      8  O   VAL A   1      14.476   7.915  24.230  0.00  0.00    -0.287 OA
ENDBRANCH   1   7
TORSDOF 3
REMARK  Name = ../refined-set-2016/4zls/4zls_pocket.pdb
REMARK  232 active torsions:
REMARK  status: ('A' for Active; 'I' for Inactive)
REMARK    1  A    between atoms: _1  and  _3
REMARK    2  A    between atoms: _3  and  _4
REMARK    3  A    between atoms: _3  and  _6
REMARK    4  A    between atoms: _6  and  _7
REMARK    5  A    between atoms: _7  and  _8
REMARK    6  A    between atoms: _8  and  _9
REMARK    7  A    between atoms: _18  and  _20
REMARK    8  A    between atoms: _20  and  _21
REMARK    9  A    between atoms: _20  and  _23
REMARK   10  A    between atoms: _23  and  _24
REMARK   11  A    between atoms: _27  and  _29
REMARK   12  A    between atoms: _29  and  _30
REMARK   13  A    between atoms: _29  and  _32
REMARK   14  A    between atoms: _32  and  _33
REMARK   15  A    between atoms: _36  and  _38
REMARK   16  A    between atoms: _38  and  _39
REMARK   17  A    between atoms: _38  and  _41
REMARK   18  A    between atoms: _41  and  _42
REMARK   19  A    between atoms: _45  and  _47
REMARK   20  A    between atoms: _47  and  _48
REMARK   21  A    between atoms: _47  and  _50
REMARK   22  A    between atoms: _50  and  _51
REMARK   23  A    between atoms: _54  and  _56
REMARK   24  A    between atoms: _56  and  _57
REMARK   25  A    between atoms: _59  and  _61
REMARK   26  A    between atoms: _61  and  _62
REMARK   27  A    between atoms: _65  and  _67
REMARK   28  A    between atoms: _67  and  _68
REMARK   29  A    between atoms: _67  and  _70
REMARK   30  A    between atoms: _70  and  _71
REMARK   31  A    between atoms: _74  and  _76
REMARK   32  A    between atoms: _76  and  _77
REMARK   33  A    between atoms: _76  and  _79
REMARK   34  A    between atoms: _79  and  _80
REMARK   35  A    between atoms: _83  and  _85
REMARK   36  A    between atoms: _85  and  _86
REMARK   37  A    between atoms: _85  and  _88
REMARK   38  A    between atoms: _88  and  _89
REMARK   39  A    between atoms: _92  and  _94
REMARK   40  A    between atoms: _94  and  _95
REMARK   41  A    between atoms: _94  and  _97
REMARK   42  A    between atoms: _100  and  _102
REMARK   43  A    between atoms: _102  and  _103
REMARK   44  A    between atoms: _102  and  _105
REMARK   45  A    between atoms: _105  and  _106
REMARK   46  A    between atoms: _106  and  _107
REMARK   47  A    between atoms: _107  and  _108
REMARK   48  A    between atoms: _108  and  _109
REMARK   49  A    between atoms: _113  and  _115
REMARK   50  A    between atoms: _115  and  _116
REMARK   51  A    between atoms: _115  and  _118
REMARK   52  A    between atoms: _118  and  _119
REMARK   53  A    between atoms: _119  and  _120
REMARK   54  A    between atoms: _122  and  _124
REMARK   55  A    between atoms: _124  and  _125
REMARK   56  A    between atoms: _124  and  _127
REMARK   57  A    between atoms: _127  and  _128
REMARK   58  A    between atoms: _131  and  _133
REMARK   59  A    between atoms: _133  and  _134
REMARK   60  A    between atoms: _136  and  _138
REMARK   61  A    between atoms: _138  and  _139
REMARK   62  A    between atoms: _141  and  _143
REMARK   63  A    between atoms: _143  and  _144
REMARK   64  A    between atoms: _143  and  _146
REMARK   65  A    between atoms: _146  and  _147
REMARK   66  A    between atoms: _150  and  _152
REMARK   67  A    between atoms: _152  and  _153
REMARK   68  A    between atoms: _155  and  _157
REMARK   69  A    between atoms: _157  and  _158
REMARK   70  A    between atoms: _160  and  _162
REMARK   71  A    between atoms: _162  and  _163
REMARK   72  A    between atoms: _162  and  _165
REMARK   73  A    between atoms: _165  and  _166
REMARK   74  A    between atoms: _172  and  _174
REMARK   75  A    between atoms: _174  and  _175
REMARK   76  A    between atoms: _174  and  _177
REMARK   77  A    between atoms: _177  and  _178
REMARK   78  A    between atoms: _181  and  _183
REMARK   79  A    between atoms: _183  and  _184
REMARK   80  A    between atoms: _183  and  _186
REMARK   81  A    between atoms: _186  and  _187
REMARK   82  A    between atoms: _190  and  _192
REMARK   83  A    between atoms: _192  and  _193
REMARK   84  A    between atoms: _192  and  _195
REMARK   85  A    between atoms: _195  and  _196
REMARK   86  A    between atoms: _200  and  _201
REMARK   87  A    between atoms: _206  and  _208
REMARK   88  A    between atoms: _208  and  _209
REMARK   89  A    between atoms: _208  and  _211
REMARK   90  A    between atoms: _214  and  _216
REMARK   91  A    between atoms: _216  and  _217
REMARK   92  A    between atoms: _216  and  _219
REMARK   93  A    between atoms: _219  and  _220
REMARK   94  A    between atoms: _225  and  _227
REMARK   95  A    between atoms: _227  and  _228
REMARK   96  A    between atoms: _227  and  _230
REMARK   97  A    between atoms: _230  and  _231
REMARK   98  A    between atoms: _234  and  _236
REMARK   99  A    between atoms: _236  and  _237
REMARK  100  A    between atoms: _239  and  _241
REMARK  101  A    between atoms: _241  and  _242
REMARK  102  A    between atoms: _241  and  _244
REMARK  103  A    between atoms: _244  and  _245
REMARK  104  A    between atoms: _245  and  _246
REMARK  105  A    between atoms: _246  and  _247
REMARK  106  A    between atoms: _256  and  _258
REMARK  107  A    between atoms: _258  and  _259
REMARK  108  A    between atoms: _258  and  _261
REMARK  109  A    between atoms: _261  and  _262
REMARK  110  A    between atoms: _267  and  _269
REMARK  111  A    between atoms: _269  and  _270
REMARK  112  A    between atoms: _269  and  _272
REMARK  113  A    between atoms: _272  and  _273
REMARK  114  A    between atoms: _273  and  _274
REMARK  115  A    between atoms: _274  and  _275
REMARK  116  A    between atoms: _284  and  _286
REMARK  117  A    between atoms: _286  and  _287
REMARK  118  A    between atoms: _286  and  _289
REMARK  119  A    between atoms: _289  and  _290
REMARK  120  A    between atoms: _293  and  _295
REMARK  121  A    between atoms: _295  and  _296
REMARK  122  A    between atoms: _295  and  _298
REMARK  123  A    between atoms: _298  and  _299
REMARK  124  A    between atoms: _302  and  _304
REMARK  125  A    between atoms: _304  and  _305
REMARK  126  A    between atoms: _304  and  _307
REMARK  127  A    between atoms: _307  and  _308
REMARK  128  A    between atoms: _311  and  _313
REMARK  129  A    between atoms: _313  and  _314
REMARK  130  A    between atoms: _313  and  _316
REMARK  131  A    between atoms: _316  and  _317
REMARK  132  A    between atoms: _320  and  _322
REMARK  133  A    between atoms: _322  and  _323
REMARK  134  A    between atoms: _322  and  _325
REMARK  135  A    between atoms: _325  and  _326
REMARK  136  A    between atoms: _329  and  _331
REMARK  137  A    between atoms: _331  and  _332
REMARK  138  A    between atoms: _334  and  _336
REMARK  139  A    between atoms: _336  and  _337
REMARK  140  A    between atoms: _340  and  _342
REMARK  141  A    between atoms: _342  and  _343
REMARK  142  A    between atoms: _342  and  _345
REMARK  143  A    between atoms: _345  and  _346
REMARK  144  A    between atoms: _349  and  _351
REMARK  145  A    between atoms: _351  and  _352
REMARK  146  A    between atoms: _351  and  _354
REMARK  147  A    between atoms: _354  and  _355
REMARK  148  A    between atoms: _358  and  _360
REMARK  149  A    between atoms: _360  and  _361
REMARK  150  A    between atoms: _360  and  _363
REMARK  151  A    between atoms: _363  and  _364
REMARK  152  A    between atoms: _367  and  _369
REMARK  153  A    between atoms: _369  and  _370
REMARK  154  A    between atoms: _369  and  _372
REMARK  155  A    between atoms: _375  and  _377
REMARK  156  A    between atoms: _377  and  _378
REMARK  157  A    between atoms: _377  and  _380
REMARK  158  A    between atoms: _380  and  _381
REMARK  159  A    between atoms: _381  and  _382
REMARK  160  A    between atoms: _382  and  _383
REMARK  161  A    between atoms: _383  and  _384
REMARK  162  A    between atoms: _388  and  _390
REMARK  163  A    between atoms: _390  and  _391
REMARK  164  A    between atoms: _390  and  _393
REMARK  165  A    between atoms: _393  and  _394
REMARK  166  A    between atoms: _394  and  _395
REMARK  167  A    between atoms: _397  and  _399
REMARK  168  A    between atoms: _399  and  _400
REMARK  169  A    between atoms: _399  and  _402
REMARK  170  A    between atoms: _402  and  _403
REMARK  171  A    between atoms: _406  and  _408
REMARK  172  A    between atoms: _408  and  _409
REMARK  173  A    between atoms: _411  and  _413
REMARK  174  A    between atoms: _413  and  _414
REMARK  175  A    between atoms: _416  and  _418
REMARK  176  A    between atoms: _418  and  _419
REMARK  177  A    between atoms: _418  and  _421
REMARK  178  A    between atoms: _421  and  _422
REMARK  179  A    between atoms: _425  and  _427
REMARK  180  A    between atoms: _427  and  _428
REMARK  181  A    between atoms: _430  and  _432
REMARK  182  A    between atoms: _432  and  _433
REMARK  183  A    between atoms: _435  and  _437
REMARK  184  A    between atoms: _437  and  _438
REMARK  185  A    between atoms: _437  and  _440
REMARK  186  A    between atoms: _440  and  _441
REMARK  187  A    between atoms: _447  and  _449
REMARK  188  A    between atoms: _449  and  _450
REMARK  189  A    between atoms: _449  and  _452
REMARK  190  A    between atoms: _452  and  _453
REMARK  191  A    between atoms: _456  and  _458
REMARK  192  A    between atoms: _458  and  _459
REMARK  193  A    between atoms: _458  and  _461
REMARK  194  A    between atoms: _464  and  _466
REMARK  195  A    between atoms: _466  and  _467
REMARK  196  A    between atoms: _466  and  _469
REMARK  197  A    between atoms: _469  and  _470
REMARK  198  A    between atoms: _473  and  _475
REMARK  199  A    between atoms: _475  and  _476
REMARK  200  A    between atoms: _479  and  _480
REMARK  201  A    between atoms: _485  and  _487
REMARK  202  A    between atoms: _487  and  _488
REMARK  203  A    between atoms: _487  and  _490
REMARK  204  A    between atoms: _490  and  _491
REMARK  205  A    between atoms: _495  and  _496
REMARK  206  A    between atoms: _501  and  _503
REMARK  207  A    between atoms: _503  and  _504
REMARK  208  A    between atoms: _503  and  _506
REMARK  209  A    between atoms: _509  and  _511
REMARK  210  A    between atoms: _511  and  _512
REMARK  211  A    between atoms: _511  and  _514
REMARK  212  A    between atoms: _514  and  _515
REMARK  213  A    between atoms: _520  and  _522
REMARK  214  A    between atoms: _522  and  _523
REMARK  215  A    between atoms: _522  and  _525
REMARK  216  A    between atoms: _525  and  _526
REMARK  217  A    between atoms: _529  and  _531
REMARK  218  A    between atoms: _531  and  _532
REMARK  219  A    between atoms: _531  and  _534
REMARK  220  A    between atoms: _534  and  _535
REMARK  221  A    between atoms: _538  and  _540
REMARK  222  A    between atoms: _540  and  _541
REMARK  223  A    between atoms: _543  and  _545
REMARK  224  A    between atoms: _545  and  _546
REMARK  225  A    between atoms: _545  and  _548
REMARK  226  A    between atoms: _548  and  _549
REMARK  227  A    between atoms: _549  and  _550
REMARK  228  A    between atoms: _550  and  _551
REMARK  229  A    between atoms: _560  and  _562
REMARK  230  A    between atoms: _562  and  _563
REMARK  231  A    between atoms: _562  and  _565
REMARK  232  A    between atoms: _565  and  _566
REMARK                            x       y       z     vdW  Elec       q    Type
REMARK                         _______ _______ _______ _____ _____    ______ ____
ROOT
ATOM      1  CA  LEU A   1      13.077  13.485  27.414  0.00  0.00    +0.133 C 
ENDROOT
BRANCH   1   2
ATOM      2  N   LEU A   1      12.240  14.394  28.186  0.00  0.00    -0.239 NA
ATOM      3  H   LEU A   1      12.156  15.385  27.882  0.00  0.00    +0.142 HD
ENDBRANCH   1   2
BRANCH   1   4
ATOM      4  C   LEU A   1      14.528  13.676  27.829  0.00  0.00    +0.224 C 
ATOM      5  O   LEU A   1      14.952  14.816  28.079  0.00  0.00    -0.287 OA
ENDBRANCH   1   4
BRANCH   1   6
ATOM      6  CB  LEU A   1      12.960  13.770  25.906  0.00  0.00    +0.025 C 
BRANCH   6   7
ATOM      7  CG  LEU A   1      11.521  13.921  25.414  0.00  0.00    +0.002 C 
ATOM      8  CD2 LEU A   1      10.757  12.626  25.651  0.00  0.00    +0.000 C 
ATOM      9  CD1 LEU A   1      11.511  14.305  23.938  0.00  0.00    +0.000 C 
ENDBRANCH   6   7
ENDBRANCH   1   6
TORSDOF 4
REMARK  Name = ../refined-set-2016/4zls/4zls_pocket.pdb
REMARK  232 active torsions:
REMARK  status: ('A' for Active; 'I' for Inactive)
REMARK    1  A    between atoms: _1  and  _3
REMARK    2  A    between atoms: _3  and  _4
REMARK    3  A    between atoms: _3  and  _6
REMARK    4  A    between atoms: _6  and  _7
REMARK    5  A    between atoms: _7  and  _8
REMARK    6  A    between atoms: _8  and  _9
REMARK    7  A    between atoms: _18  and  _20
REMARK    8  A    between atoms: _20  and  _21
REMARK    9  A    between atoms: _20  and  _23
REMARK   10  A    between atoms: _23  and  _24
REMARK   11  A    between atoms: _27  and  _29
REMARK   12  A    between atoms: _29  and  _30
REMARK   13  A    between atoms: _29  and  _32
REMARK   14  A    between atoms: _32  and  _33
REMARK   15  A    between atoms: _36  and  _38
REMARK   16  A    between atoms: _38  and  _39
REMARK   17  A    between atoms: _38  and  _41
REMARK   18  A    between atoms: _41  and  _42
REMARK   19  A    between atoms: _45  and  _47
REMARK   20  A    between atoms: _47  and  _48
REMARK   21  A    between atoms: _47  and  _50
REMARK   22  A    between atoms: _50  and  _51
REMARK   23  A    between atoms: _54  and  _56
REMARK   24  A    between atoms: _56  and  _57
REMARK   25  A    between atoms: _59  and  _61
REMARK   26  A    between atoms: _61  and  _62
REMARK   27  A    between atoms: _65  and  _67
REMARK   28  A    between atoms: _67  and  _68
REMARK   29  A    between atoms: _67  and  _70
REMARK   30  A    between atoms: _70  and  _71
REMARK   31  A    between atoms: _74  and  _76
REMARK   32  A    between atoms: _76  and  _77
REMARK   33  A    between atoms: _76  and  _79
REMARK   34  A    between atoms: _79  and  _80
REMARK   35  A    between atoms: _83  and  _85
REMARK   36  A    between atoms: _85  and  _86
REMARK   37  A    between atoms: _85  and  _88
REMARK   38  A    between atoms: _88  and  _89
REMARK   39  A    between atoms: _92  and  _94
REMARK   40  A    between atoms: _94  and  _95
REMARK   41  A    between atoms: _94  and  _97
REMARK   42  A    between atoms: _100  and  _102
REMARK   43  A    between atoms: _102  and  _103
REMARK   44  A    between atoms: _102  and  _105
REMARK   45  A    between atoms: _105  and  _106
REMARK   46  A    between atoms: _106  and  _107
REMARK   47  A    between atoms: _107  and  _108
REMARK   48  A    between atoms: _108  and  _109
REMARK   49  A    between atoms: _113  and  _115
REMARK   50  A    between atoms: _115  and  _116
REMARK   51  A    between atoms: _115  and  _118
REMARK   52  A    between atoms: _118  and  _119
REMARK   53  A    between atoms: _119  and  _120
REMARK   54  A    between atoms: _122  and  _124
REMARK   55  A    between atoms: _124  and  _125
REMARK   56  A    between atoms: _124  and  _127
REMARK   57  A    between atoms: _127  and  _128
REMARK   58  A    between atoms: _131  and  _133
REMARK   59  A    between atoms: _133  and  _134
REMARK   60  A    between atoms: _136  and  _138
REMARK   61  A    between atoms: _138  and  _139
REMARK   62  A    between atoms: _141  and  _143
REMARK   63  A    between atoms: _143  and  _144
REMARK   64  A    between atoms: _143  and  _146
REMARK   65  A    between atoms: _146  and  _147
REMARK   66  A    between atoms: _150  and  _152
REMARK   67  A    between atoms: _152  and  _153
REMARK   68  A    between atoms: _155  and  _157
REMARK   69  A    between atoms: _157  and  _158
REMARK   70  A    between atoms: _160  and  _162
REMARK   71  A    between atoms: _162  and  _163
REMARK   72  A    between atoms: _162  and  _165
REMARK   73  A    between atoms: _165  and  _166
REMARK   74  A    between atoms: _172  and  _174
REMARK   75  A    between atoms: _174  and  _175
REMARK   76  A    between atoms: _174  and  _177
REMARK   77  A    between atoms: _177  and  _178
REMARK   78  A    between atoms: _181  and  _183
REMARK   79  A    between atoms: _183  and  _184
REMARK   80  A    between atoms: _183  and  _186
REMARK   81  A    between atoms: _186  and  _187
REMARK   82  A    between atoms: _190  and  _192
REMARK   83  A    between atoms: _192  and  _193
REMARK   84  A    between atoms: _192  and  _195
REMARK   85  A    between atoms: _195  and  _196
REMARK   86  A    between atoms: _200  and  _201
REMARK   87  A    between atoms: _206  and  _208
REMARK   88  A    between atoms: _208  and  _209
REMARK   89  A    between atoms: _208  and  _211
REMARK   90  A    between atoms: _214  and  _216
REMARK   91  A    between atoms: _216  and  _217
REMARK   92  A    between atoms: _216  and  _219
REMARK   93  A    between atoms: _219  and  _220
REMARK   94  A    between atoms: _225  and  _227
REMARK   95  A    between atoms: _227  and  _228
REMARK   96  A    between atoms: _227  and  _230
REMARK   97  A    between atoms: _230  and  _231
REMARK   98  A    between atoms: _234  and  _236
REMARK   99  A    between atoms: _236  and  _237
REMARK  100  A    between atoms: _239  and  _241
REMARK  101  A    between atoms: _241  and  _242
REMARK  102  A    between atoms: _241  and  _244
REMARK  103  A    between atoms: _244  and  _245
REMARK  104  A    between atoms: _245  and  _246
REMARK  105  A    between atoms: _246  and  _247
REMARK  106  A    between atoms: _256  and  _258
REMARK  107  A    between atoms: _258  and  _259
REMARK  108  A    between atoms: _258  and  _261
REMARK  109  A    between atoms: _261  and  _262
REMARK  110  A    between atoms: _267  and  _269
REMARK  111  A    between atoms: _269  and  _270
REMARK  112  A    between atoms: _269  and  _272
REMARK  113  A    between atoms: _272  and  _273
REMARK  114  A    between atoms: _273  and  _274
REMARK  115  A    between atoms: _274  and  _275
REMARK  116  A    between atoms: _284  and  _286
REMARK  117  A    between atoms: _286  and  _287
REMARK  118  A    between atoms: _286  and  _289
REMARK  119  A    between atoms: _289  and  _290
REMARK  120  A    between atoms: _293  and  _295
REMARK  121  A    between atoms: _295  and  _296
REMARK  122  A    between atoms: _295  and  _298
REMARK  123  A    between atoms: _298  and  _299
REMARK  124  A    between atoms: _302  and  _304
REMARK  125  A    between atoms: _304  and  _305
REMARK  126  A    between atoms: _304  and  _307
REMARK  127  A    between atoms: _307  and  _308
REMARK  128  A    between atoms: _311  and  _313
REMARK  129  A    between atoms: _313  and  _314
REMARK  130  A    between atoms: _313  and  _316
REMARK  131  A    between atoms: _316  and  _317
REMARK  132  A    between atoms: _320  and  _322
REMARK  133  A    between atoms: _322  and  _323
REMARK  134  A    between atoms: _322  and  _325
REMARK  135  A    between atoms: _325  and  _326
REMARK  136  A    between atoms: _329  and  _331
REMARK  137  A    between atoms: _331  and  _332
REMARK  138  A    between atoms: _334  and  _336
REMARK  139  A    between atoms: _336  and  _337
REMARK  140  A    between atoms: _340  and  _342
REMARK  141  A    between atoms: _342  and  _343
REMARK  142  A    between atoms: _342  and  _345
REMARK  143  A    between atoms: _345  and  _346
REMARK  144  A    between atoms: _349  and  _351
REMARK  145  A    between atoms: _351  and  _352
REMARK  146  A    between atoms: _351  and  _354
REMARK  147  A    between atoms: _354  and  _355
REMARK  148  A    between atoms: _358  and  _360
REMARK  149  A    between atoms: _360  and  _361
REMARK  150  A    between atoms: _360  and  _363
REMARK  151  A    between atoms: _363  and  _364
REMARK  152  A    between atoms: _367  and  _369
REMARK  153  A    between atoms: _369  and  _370
REMARK  154  A    between atoms: _369  and  _372
REMARK  155  A    between atoms: _375  and  _377
REMARK  156  A    between atoms: _377  and  _378
REMARK  157  A    between atoms: _377  and  _380
REMARK  158  A    between atoms: _380  and  _381
REMARK  159  A    between atoms: _381  and  _382
REMARK  160  A    between atoms: _382  and  _383
REMARK  161  A    between atoms: _383  and  _384
REMARK  162  A    between atoms: _388  and  _390
REMARK  163  A    between atoms: _390  and  _391
REMARK  164  A    between atoms: _390  and  _393
REMARK  165  A    between atoms: _393  and  _394
REMARK  166  A    between atoms: _394  and  _395
REMARK  167  A    between atoms: _397  and  _399
REMARK  168  A    between atoms: _399  and  _400
REMARK  169  A    between atoms: _399  and  _402
REMARK  170  A    between atoms: _402  and  _403
REMARK  171  A    between atoms: _406  and  _408
REMARK  172  A    between atoms: _408  and  _409
REMARK  173  A    between atoms: _411  and  _413
REMARK  174  A    between atoms: _413  and  _414
REMARK  175  A    between atoms: _416  and  _418
REMARK  176  A    between atoms: _418  and  _419
REMARK  177  A    between atoms: _418  and  _421
REMARK  178  A    between atoms: _421  and  _422
REMARK  179  A    between atoms: _425  and  _427
REMARK  180  A    between atoms: _427  and  _428
REMARK  181  A    between atoms: _430  and  _432
REMARK  182  A    between atoms: _432  and  _433
REMARK  183  A    between atoms: _435  and  _437
REMARK  184  A    between atoms: _437  and  _438
REMARK  185  A    between atoms: _437  and  _440
REMARK  186  A    between atoms: _440  and  _441
REMARK  187  A    between atoms: _447  and  _449
REMARK  188  A    between atoms: _449  and  _450
REMARK  189  A    between atoms: _449  and  _452
REMARK  190  A    between atoms: _452  and  _453
REMARK  191  A    between atoms: _456  and  _458
REMARK  192  A    between atoms: _458  and  _459
REMARK  193  A    between atoms: _458  and  _461
REMARK  194  A    between atoms: _464  and  _466
REMARK  195  A    between atoms: _466  and  _467
REMARK  196  A    between atoms: _466  and  _469
REMARK  197  A    between atoms: _469  and  _470
REMARK  198  A    between atoms: _473  and  _475
REMARK  199  A    between atoms: _475  and  _476
REMARK  200  A    between atoms: _479  and  _480
REMARK  201  A    between atoms: _485  and  _487
REMARK  202  A    between atoms: _487  and  _488
REMARK  203  A    between atoms: _487  and  _490
REMARK  204  A    between atoms: _490  and  _491
REMARK  205  A    between atoms: _495  and  _496
REMARK  206  A    between atoms: _501  and  _503
REMARK  207  A    between atoms: _503  and  _504
REMARK  208  A    between atoms: _503  and  _506
REMARK  209  A    between atoms: _509  and  _511
REMARK  210  A    between atoms: _511  and  _512
REMARK  211  A    between atoms: _511  and  _514
REMARK  212  A    between atoms: _514  and  _515
REMARK  213  A    between atoms: _520  and  _522
REMARK  214  A    between atoms: _522  and  _523
REMARK  215  A    between atoms: _522  and  _525
REMARK  216  A    between atoms: _525  and  _526
REMARK  217  A    between atoms: _529  and  _531
REMARK  218  A    between atoms: _531  and  _532
REMARK  219  A    between atoms: _531  and  _534
REMARK  220  A    between atoms: _534  and  _535
REMARK  221  A    between atoms: _538  and  _540
REMARK  222  A    between atoms: _540  and  _541
REMARK  223  A    between atoms: _543  and  _545
REMARK  224  A    between atoms: _545  and  _546
REMARK  225  A    between atoms: _545  and  _548
REMARK  226  A    between atoms: _548  and  _549
REMARK  227  A    between atoms: _549  and  _550
REMARK  228  A    between atoms: _550  and  _551
REMARK  229  A    between atoms: _560  and  _562
REMARK  230  A    between atoms: _562  and  _563
REMARK  231  A    between atoms: _562  and  _565
REMARK  232  A    between atoms: _565  and  _566
REMARK                            x       y       z     vdW  Elec       q    Type
REMARK                         _______ _______ _______ _____ _____    ______ ____
ROOT
ATOM      1  C   ASN A   6      17.626  22.593  27.838  0.00  0.00    +0.241 C 
ATOM      2  O   ASN A   6      17.760  23.831  27.849  0.00  0.00    -0.273 OA
ATOM      3  N   ILE A   7      16.651  22.003  27.184  0.00  0.00    -0.297 N 
ATOM      4  H   ILE A   7      16.585  20.967  27.245  0.00  0.00    +0.150 HD
ENDROOT
BRANCH   3   5
ATOM      5  CA  ILE A   7      15.663  22.694  26.386  0.00  0.00    +0.149 C 
BRANCH   5   6
ATOM      6  C   ILE A   7      14.263  22.531  26.951  0.00  0.00    +0.241 C 
ATOM      7  N   ILE A   8      13.579  23.626  27.262  0.00  0.00    -0.297 N 
ATOM      8  H   ILE A   8      14.050  24.548  27.162  0.00  0.00    +0.150 HD
ATOM      9  O   ILE A   7      13.775  21.404  27.138  0.00  0.00    -0.273 OA
BRANCH   7  10
ATOM     10  CA  ILE A   8      12.203  23.602  27.736  0.00  0.00    +0.149 C 
BRANCH  10  11
ATOM     11  C   ILE A   8      11.318  23.857  26.516  0.00  0.00    +0.241 C 
ATOM     12  N   GLY A   9      10.577  22.856  26.094  0.00  0.00    -0.295 N 
ATOM     13  H   GLY A   9      10.581  21.951  26.606  0.00  0.00    +0.150 HD
ATOM     14  O   ILE A   8      11.312  24.960  25.954  0.00  0.00    -0.273 OA
BRANCH  12  15
ATOM     15  CA  GLY A   9       9.747  23.020  24.902  0.00  0.00    +0.176 C 
BRANCH  15  16
ATOM     16  C   GLY A   9       8.303  23.233  25.223  0.00  0.00    +0.243 C 
ATOM     17  O   GLY A   9       7.905  23.472  26.361  0.00  0.00    -0.273 OA
ATOM     18  N   ARG A  10       7.449  23.168  24.205  0.00  0.00    -0.297 N 
ATOM     19  H   ARG A  10       7.741  22.736  23.305  0.00  0.00    +0.150 HD
BRANCH  18  20
ATOM     20  CA  ARG A  10       6.102  23.706  24.357  0.00  0.00    +0.149 C 
BRANCH  20  21
ATOM     21  C   ARG A  10       5.253  22.920  25.334  0.00  0.00    +0.241 C 
ATOM     22  O   ARG A  10       4.364  23.504  25.957  0.00  0.00    -0.273 OA
ATOM     23  N   ASN A  11       5.536  21.627  25.484  0.00  0.00    -0.298 N 
ATOM     24  H   ASN A  11       6.309  21.179  24.951  0.00  0.00    +0.150 HD
BRANCH  23  25
ATOM     25  CA  ASN A  11       4.723  20.862  26.422  0.00  0.00    +0.146 C 
BRANCH  25  26
ATOM     26  C   ASN A  11       4.828  21.476  27.820  0.00  0.00    +0.227 C 
ATOM     27  O   ASN A  11       3.832  21.446  28.542  0.00  0.00    -0.286 OA
ENDBRANCH  25  26
BRANCH  25  28
ATOM     28  CB  ASN A  11       5.175  19.406  26.436  0.00  0.00    +0.112 C 
BRANCH  28  29
ATOM     29  CG  ASN A  11       6.536  19.167  27.070  0.00  0.00    +0.222 C 
ATOM     30  ND2 ASN A  11       6.530  18.236  28.066  0.00  0.00    -0.329 N 
ATOM     31 HD21 ASN A  11       7.415  17.990  28.554  0.00  0.00    +0.145 HD
ATOM     32 HD22 ASN A  11       5.640  17.771  28.338  0.00  0.00    +0.145 HD
ATOM     33  OD1 ASN A  11       7.566  19.744  26.713  0.00  0.00    -0.275 OA
ENDBRANCH  28  29
ENDBRANCH  25  28
ENDBRANCH  23  25
ENDBRANCH  20  21
BRANCH  20  34
ATOM     34  CB  ARG A  10       5.405  23.778  22.974  0.00  0.00    +0.033 C 
BRANCH  34  35
ATOM     35  CG  ARG A  10       6.060  24.802  22.035  0.00  0.00    +0.045 C 
BRANCH  35  36
ATOM     36  CD  ARG A  10       5.237  24.991  20.753  0.00  0.00    +0.174 C 
BRANCH  36  37
ATOM     37  NE  ARG A  10       5.237  23.754  19.992  0.00  0.00    -0.265 N 
ATOM     38  CZ  ARG A  10       4.248  22.858  19.937  0.00  0.00    +0.342 C 
ATOM     39  NH2 ARG A  10       3.119  23.068  20.605  0.00  0.00    -0.292 N 
ATOM     40 HH21 ARG A  10       3.004  23.932  21.173  0.00  0.00    +0.255 HD
ATOM     41 HH22 ARG A  10       2.351  22.369  20.560  0.00  0.00    +0.255 HD
ATOM     42  NH1 ARG A  10       4.386  21.746  19.208  0.00  0.00    -0.292 N 
ATOM     43 HH11 ARG A  10       3.613  21.051  19.168  0.00  0.00    +0.255 HD
ATOM     44 HH12 ARG A  10       5.266  21.576  18.681  0.00  0.00    +0.255 HD
ATOM     45  HE  ARG A  10       6.090  23.545  19.436  0.00  0.00    +0.259 HD
ENDBRANCH  36  37
ENDBRANCH  35  36
ENDBRANCH  34  35
ENDBRANCH  20  34
ENDBRANCH  18  20
ENDBRANCH  15  16
ENDBRANCH  12  15
ENDBRANCH  10  11
BRANCH  10  46
ATOM     46  CB  ILE A   8      11.928  24.658  28.836  0.00  0.00    +0.027 C 
ATOM     47  CG2 ILE A   8      10.491  24.570  29.309  0.00  0.00    +0.002 C 
BRANCH  46  48
ATOM     48  CG1 ILE A   8      12.943  24.578  29.992  0.00  0.00    +0.002 C 
ATOM     49  CD1 ILE A   8      12.996  23.183  30.622  0.00  0.00    +0.000 C 
ENDBRANCH  46  48
ENDBRANCH  10  46
ENDBRANCH   7  10
ENDBRANCH   5   6
BRANCH   5  50
ATOM     50  CB  ILE A   7      15.715  22.111  24.946  0.00  0.00    +0.027 C 
ATOM     51  CG2 ILE A   7      14.522  22.611  24.140  0.00  0.00    +0.002 C 
BRANCH  50  52
ATOM     52  CG1 ILE A   7      17.042  22.399  24.234  0.00  0.00    +0.002 C 
ATOM     53  CD1 ILE A   7      17.327  21.360  23.151  0.00  0.00    +0.000 C 
ENDBRANCH  50  52
ENDBRANCH   5  50
ENDBRANCH   3   5
BRANCH   1  54
ATOM     54  CA  ASN A   6      18.645  21.729  28.584  0.00  0.00    +0.158 C 
BRANCH  54  56
ATOM     55  C   VAL A   5      20.483  21.664  27.002  0.00  0.00    +0.241 C 
ATOM     56  N   ASN A   6      19.966  22.079  28.144  0.00  0.00    -0.297 N 
ATOM     57  H   ASN A   6      20.545  22.690  28.755  0.00  0.00    +0.150 HD
ATOM     58  O   VAL A   5      20.034  20.749  26.318  0.00  0.00    -0.273 OA
BRANCH  55  59
ATOM     59  CA  VAL A   5      21.742  22.392  26.563  0.00  0.00    +0.149 C 
BRANCH  59  62
ATOM     60  C   PRO A   4      23.924  21.462  26.304  0.00  0.00    +0.241 C 
ATOM     61  O   PRO A   4      24.431  22.171  27.183  0.00  0.00    -0.273 OA
ATOM     62  N   VAL A   5      22.644  21.453  25.921  0.00  0.00    -0.297 N 
ATOM     63  H   VAL A   5      22.306  20.796  25.189  0.00  0.00    +0.150 HD
BRANCH  60  67
ATOM     64  C   THR A   3      23.487  18.402  25.203  0.00  0.00    +0.246 C 
ATOM     65  O   THR A   3      23.811  18.028  26.335  0.00  0.00    -0.273 OA
ATOM     66  N   PRO A   4      24.010  19.527  24.725  0.00  0.00    -0.272 N 
ATOM     67  CA  PRO A   4      24.778  20.489  25.506  0.00  0.00    +0.152 C 
ATOM     68  CB  PRO A   4      25.492  21.326  24.430  0.00  0.00    +0.031 C 
ATOM     69  CG  PRO A   4      24.474  21.352  23.337  0.00  0.00    +0.024 C 
ATOM     70  CD  PRO A   4      23.977  19.929  23.330  0.00  0.00    +0.094 C 
BRANCH  64  71
ATOM     71  CA  THR A   3      22.573  17.529  24.356  0.00  0.00    +0.176 C 
BRANCH  71  73
ATOM     72  C   PRO A   2      22.740  15.086  24.069  0.00  0.00    +0.241 C 
ATOM     73  N   THR A   3      22.715  16.159  24.839  0.00  0.00    -0.295 N 
ATOM     74  H   THR A   3      22.803  16.017  25.866  0.00  0.00    +0.150 HD
ATOM     75  O   PRO A   2      22.672  15.104  22.844  0.00  0.00    -0.273 OA
BRANCH  72  79
ATOM     76  C   GLY A   1      20.659  13.362  25.734  0.00  0.00    +0.243 C 
ATOM     77  O   GLY A   1      20.834  14.277  26.535  0.00  0.00    -0.273 OA
ATOM     78  N   PRO A   2      21.577  13.055  24.828  0.00  0.00    -0.272 N 
ATOM     79  CA  PRO A   2      22.856  13.758  24.806  0.00  0.00    +0.152 C 
ATOM     80  CB  PRO A   2      23.757  12.798  24.030  0.00  0.00    +0.031 C 
ATOM     81  CG  PRO A   2      22.823  12.090  23.103  0.00  0.00    +0.024 C 
ATOM     82  CD  PRO A   2      21.480  12.020  23.792  0.00  0.00    +0.094 C 
BRANCH  76  83
ATOM     83  CA  GLY A   1      19.391  12.530  25.755  0.00  0.00    +0.170 C 
BRANCH  83  84
ATOM     84  N   GLY A   1      18.565  12.985  26.871  0.00  0.00    -0.236 NA
ATOM     85  H   GLY A   1      18.757  13.891  27.344  0.00  0.00    +0.142 HD
ENDBRANCH  83  84
ENDBRANCH  76  83
ENDBRANCH  72  79
ENDBRANCH  71  73
BRANCH  71  86
ATOM     86  CB  THR A   3      21.103  17.969  24.405  0.00  0.00    +0.137 C 
ATOM     87  CG2 THR A   3      20.504  17.792  25.803  0.00  0.00    +0.034 C 
BRANCH  86  88
ATOM     88  OG1 THR A   3      21.008  19.379  24.150  0.00  0.00    -0.382 OA
ATOM     89  HG1 THR A   3      21.521  19.873  24.838  0.00  0.00    +0.210 HD
ENDBRANCH  86  88
ENDBRANCH  71  86
ENDBRANCH  64  71
ENDBRANCH  60  67
ENDBRANCH  59  62
BRANCH  59  90
ATOM     90  CB  VAL A   5      21.380  23.546  25.600  0.00  0.00    +0.027 C 
ATOM     91  CG2 VAL A   5      22.639  24.310  25.245  0.00  0.00    +0.002 C 
ATOM     92  CG1 VAL A   5      20.653  22.980  24.383  0.00  0.00    +0.002 C 
ENDBRANCH  59  90
ENDBRANCH  55  59
ENDBRANCH  54  56
BRANCH  54  93
ATOM     93  CB  ASN A   6      18.516  21.966  30.093  0.00  0.00    +0.114 C 
BRANCH  93  94
ATOM     94  CG  ASN A   6      19.544  21.105  30.831  0.00  0.00    +0.222 C 
ATOM     95  ND2 ASN A   6      20.320  21.717  31.710  0.00  0.00    -0.329 N 
ATOM     96 HD21 ASN A   6      21.040  21.178  32.232  0.00  0.00    +0.145 HD
ATOM     97 HD22 ASN A   6      20.210  22.737  31.879  0.00  0.00    +0.145 HD
ATOM     98  OD1 ASN A   6      19.638  19.904  30.599  0.00  0.00    -0.275 OA
ENDBRANCH  93  94
ENDBRANCH  54  93
ENDBRANCH   1  54
TORSDOF 35
REMARK  Name = ../refined-set-2016/4zls/4zls_pocket.pdb
REMARK  232 active torsions:
REMARK  status: ('A' for Active; 'I' for Inactive)
REMARK    1  A    between atoms: _1  and  _3
REMARK    2  A    between atoms: _3  and  _4
REMARK    3  A    between atoms: _3  and  _6
REMARK    4  A    between atoms: _6  and  _7
REMARK    5  A    between atoms: _7  and  _8
REMARK    6  A    between atoms: _8  and  _9
REMARK    7  A    between atoms: _18  and  _20
REMARK    8  A    between atoms: _20  and  _21
REMARK    9  A    between atoms: _20  and  _23
REMARK   10  A    between atoms: _23  and  _24
REMARK   11  A    between atoms: _27  and  _29
REMARK   12  A    between atoms: _29  and  _30
REMARK   13  A    between atoms: _29  and  _32
REMARK   14  A    between atoms: _32  and  _33
REMARK   15  A    between atoms: _36  and  _38
REMARK   16  A    between atoms: _38  and  _39
REMARK   17  A    between atoms: _38  and  _41
REMARK   18  A    between atoms: _41  and  _42
REMARK   19  A    between atoms: _45  and  _47
REMARK   20  A    between atoms: _47  and  _48
REMARK   21  A    between atoms: _47  and  _50
REMARK   22  A    between atoms: _50  and  _51
REMARK   23  A    between atoms: _54  and  _56
REMARK   24  A    between atoms: _56  and  _57
REMARK   25  A    between atoms: _59  and  _61
REMARK   26  A    between atoms: _61  and  _62
REMARK   27  A    between atoms: _65  and  _67
REMARK   28  A    between atoms: _67  and  _68
REMARK   29  A    between atoms: _67  and  _70
REMARK   30  A    between atoms: _70  and  _71
REMARK   31  A    between atoms: _74  and  _76
REMARK   32  A    between atoms: _76  and  _77
REMARK   33  A    between atoms: _76  and  _79
REMARK   34  A    between atoms: _79  and  _80
REMARK   35  A    between atoms: _83  and  _85
REMARK   36  A    between atoms: _85  and  _86
REMARK   37  A    between atoms: _85  and  _88
REMARK   38  A    between atoms: _88  and  _89
REMARK   39  A    between atoms: _92  and  _94
REMARK   40  A    between atoms: _94  and  _95
REMARK   41  A    between atoms: _94  and  _97
REMARK   42  A    between atoms: _100  and  _102
REMARK   43  A    between atoms: _102  and  _103
REMARK   44  A    between atoms: _102  and  _105
REMARK   45  A    between atoms: _105  and  _106
REMARK   46  A    between atoms: _106  and  _107
REMARK   47  A    between atoms: _107  and  _108
REMARK   48  A    between atoms: _108  and  _109
REMARK   49  A    between atoms: _113  and  _115
REMARK   50  A    between atoms: _115  and  _116
REMARK   51  A    between atoms: _115  and  _118
REMARK   52  A    between atoms: _118  and  _119
REMARK   53  A    between atoms: _119  and  _120
REMARK   54  A    between atoms: _122  and  _124
REMARK   55  A    between atoms: _124  and  _125
REMARK   56  A    between atoms: _124  and  _127
REMARK   57  A    between atoms: _127  and  _128
REMARK   58  A    between atoms: _131  and  _133
REMARK   59  A    between atoms: _133  and  _134
REMARK   60  A    between atoms: _136  and  _138
REMARK   61  A    between atoms: _138  and  _139
REMARK   62  A    between atoms: _141  and  _143
REMARK   63  A    between atoms: _143  and  _144
REMARK   64  A    between atoms: _143  and  _146
REMARK   65  A    between atoms: _146  and  _147
REMARK   66  A    between atoms: _150  and  _152
REMARK   67  A    between atoms: _152  and  _153
REMARK   68  A    between atoms: _155  and  _157
REMARK   69  A    between atoms: _157  and  _158
REMARK   70  A    between atoms: _160  and  _162
REMARK   71  A    between atoms: _162  and  _163
REMARK   72  A    between atoms: _162  and  _165
REMARK   73  A    between atoms: _165  and  _166
REMARK   74  A    between atoms: _172  and  _174
REMARK   75  A    between atoms: _174  and  _175
REMARK   76  A    between atoms: _174  and  _177
REMARK   77  A    between atoms: _177  and  _178
REMARK   78  A    between atoms: _181  and  _183
REMARK   79  A    between atoms: _183  and  _184
REMARK   80  A    between atoms: _183  and  _186
REMARK   81  A    between atoms: _186  and  _187
REMARK   82  A    between atoms: _190  and  _192
REMARK   83  A    between atoms: _192  and  _193
REMARK   84  A    between atoms: _192  and  _195
REMARK   85  A    between atoms: _195  and  _196
REMARK   86  A    between atoms: _200  and  _201
REMARK   87  A    between atoms: _206  and  _208
REMARK   88  A    between atoms: _208  and  _209
REMARK   89  A    between atoms: _208  and  _211
REMARK   90  A    between atoms: _214  and  _216
REMARK   91  A    between atoms: _216  and  _217
REMARK   92  A    between atoms: _216  and  _219
REMARK   93  A    between atoms: _219  and  _220
REMARK   94  A    between atoms: _225  and  _227
REMARK   95  A    between atoms: _227  and  _228
REMARK   96  A    between atoms: _227  and  _230
REMARK   97  A    between atoms: _230  and  _231
REMARK   98  A    between atoms: _234  and  _236
REMARK   99  A    between atoms: _236  and  _237
REMARK  100  A    between atoms: _239  and  _241
REMARK  101  A    between atoms: _241  and  _242
REMARK  102  A    between atoms: _241  and  _244
REMARK  103  A    between atoms: _244  and  _245
REMARK  104  A    between atoms: _245  and  _246
REMARK  105  A    between atoms: _246  and  _247
REMARK  106  A    between atoms: _256  and  _258
REMARK  107  A    between atoms: _258  and  _259
REMARK  108  A    between atoms: _258  and  _261
REMARK  109  A    between atoms: _261  and  _262
REMARK  110  A    between atoms: _267  and  _269
REMARK  111  A    between atoms: _269  and  _270
REMARK  112  A    between atoms: _269  and  _272
REMARK  113  A    between atoms: _272  and  _273
REMARK  114  A    between atoms: _273  and  _274
REMARK  115  A    between atoms: _274  and  _275
REMARK  116  A    between atoms: _284  and  _286
REMARK  117  A    between atoms: _286  and  _287
REMARK  118  A    between atoms: _286  and  _289
REMARK  119  A    between atoms: _289  and  _290
REMARK  120  A    between atoms: _293  and  _295
REMARK  121  A    between atoms: _295  and  _296
REMARK  122  A    between atoms: _295  and  _298
REMARK  123  A    between atoms: _298  and  _299
REMARK  124  A    between atoms: _302  and  _304
REMARK  125  A    between atoms: _304  and  _305
REMARK  126  A    between atoms: _304  and  _307
REMARK  127  A    between atoms: _307  and  _308
REMARK  128  A    between atoms: _311  and  _313
REMARK  129  A    between atoms: _313  and  _314
REMARK  130  A    between atoms: _313  and  _316
REMARK  131  A    between atoms: _316  and  _317
REMARK  132  A    between atoms: _320  and  _322
REMARK  133  A    between atoms: _322  and  _323
REMARK  134  A    between atoms: _322  and  _325
REMARK  135  A    between atoms: _325  and  _326
REMARK  136  A    between atoms: _329  and  _331
REMARK  137  A    between atoms: _331  and  _332
REMARK  138  A    between atoms: _334  and  _336
REMARK  139  A    between atoms: _336  and  _337
REMARK  140  A    between atoms: _340  and  _342
REMARK  141  A    between atoms: _342  and  _343
REMARK  142  A    between atoms: _342  and  _345
REMARK  143  A    between atoms: _345  and  _346
REMARK  144  A    between atoms: _349  and  _351
REMARK  145  A    between atoms: _351  and  _352
REMARK  146  A    between atoms: _351  and  _354
REMARK  147  A    between atoms: _354  and  _355
REMARK  148  A    between atoms: _358  and  _360
REMARK  149  A    between atoms: _360  and  _361
REMARK  150  A    between atoms: _360  and  _363
REMARK  151  A    between atoms: _363  and  _364
REMARK  152  A    between atoms: _367  and  _369
REMARK  153  A    between atoms: _369  and  _370
REMARK  154  A    between atoms: _369  and  _372
REMARK  155  A    between atoms: _375  and  _377
REMARK  156  A    between atoms: _377  and  _378
REMARK  157  A    between atoms: _377  and  _380
REMARK  158  A    between atoms: _380  and  _381
REMARK  159  A    between atoms: _381  and  _382
REMARK  160  A    between atoms: _382  and  _383
REMARK  161  A    between atoms: _383  and  _384
REMARK  162  A    between atoms: _388  and  _390
REMARK  163  A    between atoms: _390  and  _391
REMARK  164  A    between atoms: _390  and  _393
REMARK  165  A    between atoms: _393  and  _394
REMARK  166  A    between atoms: _394  and  _395
REMARK  167  A    between atoms: _397  and  _399
REMARK  168  A    between atoms: _399  and  _400
REMARK  169  A    between atoms: _399  and  _402
REMARK  170  A    between atoms: _402  and  _403
REMARK  171  A    between atoms: _406  and  _408
REMARK  172  A    between atoms: _408  and  _409
REMARK  173  A    between atoms: _411  and  _413
REMARK  174  A    between atoms: _413  and  _414
REMARK  175  A    between atoms: _416  and  _418
REMARK  176  A    between atoms: _418  and  _419
REMARK  177  A    between atoms: _418  and  _421
REMARK  178  A    between atoms: _421  and  _422
REMARK  179  A    between atoms: _425  and  _427
REMARK  180  A    between atoms: _427  and  _428
REMARK  181  A    between atoms: _430  and  _432
REMARK  182  A    between atoms: _432  and  _433
REMARK  183  A    between atoms: _435  and  _437
REMARK  184  A    between atoms: _437  and  _438
REMARK  185  A    between atoms: _437  and  _440
REMARK  186  A    between atoms: _440  and  _441
REMARK  187  A    between atoms: _447  and  _449
REMARK  188  A    between atoms: _449  and  _450
REMARK  189  A    between atoms: _449  and  _452
REMARK  190  A    between atoms: _452  and  _453
REMARK  191  A    between atoms: _456  and  _458
REMARK  192  A    between atoms: _458  and  _459
REMARK  193  A    between atoms: _458  and  _461
REMARK  194  A    between atoms: _464  and  _466
REMARK  195  A    between atoms: _466  and  _467
REMARK  196  A    between atoms: _466  and  _469
REMARK  197  A    between atoms: _469  and  _470
REMARK  198  A    between atoms: _473  and  _475
REMARK  199  A    between atoms: _475  and  _476
REMARK  200  A    between atoms: _479  and  _480
REMARK  201  A    between atoms: _485  and  _487
REMARK  202  A    between atoms: _487  and  _488
REMARK  203  A    between atoms: _487  and  _490
REMARK  204  A    between atoms: _490  and  _491
REMARK  205  A    between atoms: _495  and  _496
REMARK  206  A    between atoms: _501  and  _503
REMARK  207  A    between atoms: _503  and  _504
REMARK  208  A    between atoms: _503  and  _506
REMARK  209  A    between atoms: _509  and  _511
REMARK  210  A    between atoms: _511  and  _512
REMARK  211  A    between atoms: _511  and  _514
REMARK  212  A    between atoms: _514  and  _515
REMARK  213  A    between atoms: _520  and  _522
REMARK  214  A    between atoms: _522  and  _523
REMARK  215  A    between atoms: _522  and  _525
REMARK  216  A    between atoms: _525  and  _526
REMARK  217  A    between atoms: _529  and  _531
REMARK  218  A    between atoms: _531  and  _532
REMARK  219  A    between atoms: _531  and  _534
REMARK  220  A    between atoms: _534  and  _535
REMARK  221  A    between atoms: _538  and  _540
REMARK  222  A    between atoms: _540  and  _541
REMARK  223  A    between atoms: _543  and  _545
REMARK  224  A    between atoms: _545  and  _546
REMARK  225  A    between atoms: _545  and  _548
REMARK  226  A    between atoms: _548  and  _549
REMARK  227  A    between atoms: _549  and  _550
REMARK  228  A    between atoms: _550  and  _551
REMARK  229  A    between atoms: _560  and  _562
REMARK  230  A    between atoms: _562  and  _563
REMARK  231  A    between atoms: _562  and  _565
REMARK  232  A    between atoms: _565  and  _566
REMARK                            x       y       z     vdW  Elec       q    Type
REMARK                         _______ _______ _______ _____ _____    ______ ____
ROOT
ATOM      1  O   HOH     1      20.061  28.834  21.282  0.00  0.00    +0.000 OA
ENDROOT
TORSDOF 0
REMARK  Name = ../refined-set-2016/4zls/4zls_pocket.pdb
REMARK  232 active torsions:
REMARK  status: ('A' for Active; 'I' for Inactive)
REMARK    1  A    between atoms: _1  and  _3
REMARK    2  A    between atoms: _3  and  _4
REMARK    3  A    between atoms: _3  and  _6
REMARK    4  A    between atoms: _6  and  _7
REMARK    5  A    between atoms: _7  and  _8
REMARK    6  A    between atoms: _8  and  _9
REMARK    7  A    between atoms: _18  and  _20
REMARK    8  A    between atoms: _20  and  _21
REMARK    9  A    between atoms: _20  and  _23
REMARK   10  A    between atoms: _23  and  _24
REMARK   11  A    between atoms: _27  and  _29
REMARK   12  A    between atoms: _29  and  _30
REMARK   13  A    between atoms: _29  and  _32
REMARK   14  A    between atoms: _32  and  _33
REMARK   15  A    between atoms: _36  and  _38
REMARK   16  A    between atoms: _38  and  _39
REMARK   17  A    between atoms: _38  and  _41
REMARK   18  A    between atoms: _41  and  _42
REMARK   19  A    between atoms: _45  and  _47
REMARK   20  A    between atoms: _47  and  _48
REMARK   21  A    between atoms: _47  and  _50
REMARK   22  A    between atoms: _50  and  _51
REMARK   23  A    between atoms: _54  and  _56
REMARK   24  A    between atoms: _56  and  _57
REMARK   25  A    between atoms: _59  and  _61
REMARK   26  A    between atoms: _61  and  _62
REMARK   27  A    between atoms: _65  and  _67
REMARK   28  A    between atoms: _67  and  _68
REMARK   29  A    between atoms: _67  and  _70
REMARK   30  A    between atoms: _70  and  _71
REMARK   31  A    between atoms: _74  and  _76
REMARK   32  A    between atoms: _76  and  _77
REMARK   33  A    between atoms: _76  and  _79
REMARK   34  A    between atoms: _79  and  _80
REMARK   35  A    between atoms: _83  and  _85
REMARK   36  A    between atoms: _85  and  _86
REMARK   37  A    between atoms: _85  and  _88
REMARK   38  A    between atoms: _88  and  _89
REMARK   39  A    between atoms: _92  and  _94
REMARK   40  A    between atoms: _94  and  _95
REMARK   41  A    between atoms: _94  and  _97
REMARK   42  A    between atoms: _100  and  _102
REMARK   43  A    between atoms: _102  and  _103
REMARK   44  A    between atoms: _102  and  _105
REMARK   45  A    between atoms: _105  and  _106
REMARK   46  A    between atoms: _106  and  _107
REMARK   47  A    between atoms: _107  and  _108
REMARK   48  A    between atoms: _108  and  _109
REMARK   49  A    between atoms: _113  and  _115
REMARK   50  A    between atoms: _115  and  _116
REMARK   51  A    between atoms: _115  and  _118
REMARK   52  A    between atoms: _118  and  _119
REMARK   53  A    between atoms: _119  and  _120
REMARK   54  A    between atoms: _122  and  _124
REMARK   55  A    between atoms: _124  and  _125
REMARK   56  A    between atoms: _124  and  _127
REMARK   57  A    between atoms: _127  and  _128
REMARK   58  A    between atoms: _131  and  _133
REMARK   59  A    between atoms: _133  and  _134
REMARK   60  A    between atoms: _136  and  _138
REMARK   61  A    between atoms: _138  and  _139
REMARK   62  A    between atoms: _141  and  _143
REMARK   63  A    between atoms: _143  and  _144
REMARK   64  A    between atoms: _143  and  _146
REMARK   65  A    between atoms: _146  and  _147
REMARK   66  A    between atoms: _150  and  _152
REMARK   67  A    between atoms: _152  and  _153
REMARK   68  A    between atoms: _155  and  _157
REMARK   69  A    between atoms: _157  and  _158
REMARK   70  A    between atoms: _160  and  _162
REMARK   71  A    between atoms: _162  and  _163
REMARK   72  A    between atoms: _162  and  _165
REMARK   73  A    between atoms: _165  and  _166
REMARK   74  A    between atoms: _172  and  _174
REMARK   75  A    between atoms: _174  and  _175
REMARK   76  A    between atoms: _174  and  _177
REMARK   77  A    between atoms: _177  and  _178
REMARK   78  A    between atoms: _181  and  _183
REMARK   79  A    between atoms: _183  and  _184
REMARK   80  A    between atoms: _183  and  _186
REMARK   81  A    between atoms: _186  and  _187
REMARK   82  A    between atoms: _190  and  _192
REMARK   83  A    between atoms: _192  and  _193
REMARK   84  A    between atoms: _192  and  _195
REMARK   85  A    between atoms: _195  and  _196
REMARK   86  A    between atoms: _200  and  _201
REMARK   87  A    between atoms: _206  and  _208
REMARK   88  A    between atoms: _208  and  _209
REMARK   89  A    between atoms: _208  and  _211
REMARK   90  A    between atoms: _214  and  _216
REMARK   91  A    between atoms: _216  and  _217
REMARK   92  A    between atoms: _216  and  _219
REMARK   93  A    between atoms: _219  and  _220
REMARK   94  A    between atoms: _225  and  _227
REMARK   95  A    between atoms: _227  and  _228
REMARK   96  A    between atoms: _227  and  _230
REMARK   97  A    between atoms: _230  and  _231
REMARK   98  A    between atoms: _234  and  _236
REMARK   99  A    between atoms: _236  and  _237
REMARK  100  A    between atoms: _239  and  _241
REMARK  101  A    between atoms: _241  and  _242
REMARK  102  A    between atoms: _241  and  _244
REMARK  103  A    between atoms: _244  and  _245
REMARK  104  A    between atoms: _245  and  _246
REMARK  105  A    between atoms: _246  and  _247
REMARK  106  A    between atoms: _256  and  _258
REMARK  107  A    between atoms: _258  and  _259
REMARK  108  A    between atoms: _258  and  _261
REMARK  109  A    between atoms: _261  and  _262
REMARK  110  A    between atoms: _267  and  _269
REMARK  111  A    between atoms: _269  and  _270
REMARK  112  A    between atoms: _269  and  _272
REMARK  113  A    between atoms: _272  and  _273
REMARK  114  A    between atoms: _273  and  _274
REMARK  115  A    between atoms: _274  and  _275
REMARK  116  A    between atoms: _284  and  _286
REMARK  117  A    between atoms: _286  and  _287
REMARK  118  A    between atoms: _286  and  _289
REMARK  119  A    between atoms: _289  and  _290
REMARK  120  A    between atoms: _293  and  _295
REMARK  121  A    between atoms: _295  and  _296
REMARK  122  A    between atoms: _295  and  _298
REMARK  123  A    between atoms: _298  and  _299
REMARK  124  A    between atoms: _302  and  _304
REMARK  125  A    between atoms: _304  and  _305
REMARK  126  A    between atoms: _304  and  _307
REMARK  127  A    between atoms: _307  and  _308
REMARK  128  A    between atoms: _311  and  _313
REMARK  129  A    between atoms: _313  and  _314
REMARK  130  A    between atoms: _313  and  _316
REMARK  131  A    between atoms: _316  and  _317
REMARK  132  A    between atoms: _320  and  _322
REMARK  133  A    between atoms: _322  and  _323
REMARK  134  A    between atoms: _322  and  _325
REMARK  135  A    between atoms: _325  and  _326
REMARK  136  A    between atoms: _329  and  _331
REMARK  137  A    between atoms: _331  and  _332
REMARK  138  A    between atoms: _334  and  _336
REMARK  139  A    between atoms: _336  and  _337
REMARK  140  A    between atoms: _340  and  _342
REMARK  141  A    between atoms: _342  and  _343
REMARK  142  A    between atoms: _342  and  _345
REMARK  143  A    between atoms: _345  and  _346
REMARK  144  A    between atoms: _349  and  _351
REMARK  145  A    between atoms: _351  and  _352
REMARK  146  A    between atoms: _351  and  _354
REMARK  147  A    between atoms: _354  and  _355
REMARK  148  A    between atoms: _358  and  _360
REMARK  149  A    between atoms: _360  and  _361
REMARK  150  A    between atoms: _360  and  _363
REMARK  151  A    between atoms: _363  and  _364
REMARK  152  A    between atoms: _367  and  _369
REMARK  153  A    between atoms: _369  and  _370
REMARK  154  A    between atoms: _369  and  _372
REMARK  155  A    between atoms: _375  and  _377
REMARK  156  A    between atoms: _377  and  _378
REMARK  157  A    between atoms: _377  and  _380
REMARK  158  A    between atoms: _380  and  _381
REMARK  159  A    between atoms: _381  and  _382
REMARK  160  A    between atoms: _382  and  _383
REMARK  161  A    between atoms: _383  and  _384
REMARK  162  A    between atoms: _388  and  _390
REMARK  163  A    between atoms: _390  and  _391
REMARK  164  A    between atoms: _390  and  _393
REMARK  165  A    between atoms: _393  and  _394
REMARK  166  A    between atoms: _394  and  _395
REMARK  167  A    between atoms: _397  and  _399
REMARK  168  A    between atoms: _399  and  _400
REMARK  169  A    between atoms: _399  and  _402
REMARK  170  A    between atoms: _402  and  _403
REMARK  171  A    between atoms: _406  and  _408
REMARK  172  A    between atoms: _408  and  _409
REMARK  173  A    between atoms: _411  and  _413
REMARK  174  A    between atoms: _413  and  _414
REMARK  175  A    between atoms: _416  and  _418
REMARK  176  A    between atoms: _418  and  _419
REMARK  177  A    between atoms: _418  and  _421
REMARK  178  A    between atoms: _421  and  _422
REMARK  179  A    between atoms: _425  and  _427
REMARK  180  A    between atoms: _427  and  _428
REMARK  181  A    between atoms: _430  and  _432
REMARK  182  A    between atoms: _432  and  _433
REMARK  183  A    between atoms: _435  and  _437
REMARK  184  A    between atoms: _437  and  _438
REMARK  185  A    between atoms: _437  and  _440
REMARK  186  A    between atoms: _440  and  _441
REMARK  187  A    between atoms: _447  and  _449
REMARK  188  A    between atoms: _449  and  _450
REMARK  189  A    between atoms: _449  and  _452
REMARK  190  A    between atoms: _452  and  _453
REMARK  191  A    between atoms: _456  and  _458
REMARK  192  A    between atoms: _458  and  _459
REMARK  193  A    between atoms: _458  and  _461
REMARK  194  A    between atoms: _464  and  _466
REMARK  195  A    between atoms: _466  and  _467
REMARK  196  A    between atoms: _466  and  _469
REMARK  197  A    between atoms: _469  and  _470
REMARK  198  A    between atoms: _473  and  _475
REMARK  199  A    between atoms: _475  and  _476
REMARK  200  A    between atoms: _479  and  _480
REMARK  201  A    between atoms: _485  and  _487
REMARK  202  A    between atoms: _487  and  _488
REMARK  203  A    between atoms: _487  and  _490
REMARK  204  A    between atoms: _490  and  _491
REMARK  205  A    between atoms: _495  and  _496
REMARK  206  A    between atoms: _501  and  _503
REMARK  207  A    between atoms: _503  and  _504
REMARK  208  A    between atoms: _503  and  _506
REMARK  209  A    between atoms: _509  and  _511
REMARK  210  A    between atoms: _511  and  _512
REMARK  211  A    between atoms: _511  and  _514
REMARK  212  A    between atoms: _514  and  _515
REMARK  213  A    between atoms: _520  and  _522
REMARK  214  A    between atoms: _522  and  _523
REMARK  215  A    between atoms: _522  and  _525
REMARK  216  A    between atoms: _525  and  _526
REMARK  217  A    between atoms: _529  and  _531
REMARK  218  A    between atoms: _531  and  _532
REMARK  219  A    between atoms: _531  and  _534
REMARK  220  A    between atoms: _534  and  _535
REMARK  221  A    between atoms: _538  and  _540
REMARK  222  A    between atoms: _540  and  _541
REMARK  223  A    between atoms: _543  and  _545
REMARK  224  A    between atoms: _545  and  _546
REMARK  225  A    between atoms: _545  and  _548
REMARK  226  A    between atoms: _548  and  _549
REMARK  227  A    between atoms: _549  and  _550
REMARK  228  A    between atoms: _550  and  _551
REMARK  229  A    between atoms: _560  and  _562
REMARK  230  A    between atoms: _562  and  _563
REMARK  231  A    between atoms: _562  and  _565
REMARK  232  A    between atoms: _565  and  _566
REMARK                            x       y       z     vdW  Elec       q    Type
REMARK                         _______ _______ _______ _____ _____    ______ ____
ROOT
ATOM      1  O   HOH     1      20.933  33.867  10.832  0.00  0.00    +0.000 OA
ENDROOT
TORSDOF 0
REMARK  Name = ../refined-set-2016/4zls/4zls_pocket.pdb
REMARK  232 active torsions:
REMARK  status: ('A' for Active; 'I' for Inactive)
REMARK    1  A    between atoms: _1  and  _3
REMARK    2  A    between atoms: _3  and  _4
REMARK    3  A    between atoms: _3  and  _6
REMARK    4  A    between atoms: _6  and  _7
REMARK    5  A    between atoms: _7  and  _8
REMARK    6  A    between atoms: _8  and  _9
REMARK    7  A    between atoms: _18  and  _20
REMARK    8  A    between atoms: _20  and  _21
REMARK    9  A    between atoms: _20  and  _23
REMARK   10  A    between atoms: _23  and  _24
REMARK   11  A    between atoms: _27  and  _29
REMARK   12  A    between atoms: _29  and  _30
REMARK   13  A    between atoms: _29  and  _32
REMARK   14  A    between atoms: _32  and  _33
REMARK   15  A    between atoms: _36  and  _38
REMARK   16  A    between atoms: _38  and  _39
REMARK   17  A    between atoms: _38  and  _41
REMARK   18  A    between atoms: _41  and  _42
REMARK   19  A    between atoms: _45  and  _47
REMARK   20  A    between atoms: _47  and  _48
REMARK   21  A    between atoms: _47  and  _50
REMARK   22  A    between atoms: _50  and  _51
REMARK   23  A    between atoms: _54  and  _56
REMARK   24  A    between atoms: _56  and  _57
REMARK   25  A    between atoms: _59  and  _61
REMARK   26  A    between atoms: _61  and  _62
REMARK   27  A    between atoms: _65  and  _67
REMARK   28  A    between atoms: _67  and  _68
REMARK   29  A    between atoms: _67  and  _70
REMARK   30  A    between atoms: _70  and  _71
REMARK   31  A    between atoms: _74  and  _76
REMARK   32  A    between atoms: _76  and  _77
REMARK   33  A    between atoms: _76  and  _79
REMARK   34  A    between atoms: _79  and  _80
REMARK   35  A    between atoms: _83  and  _85
REMARK   36  A    between atoms: _85  and  _86
REMARK   37  A    between atoms: _85  and  _88
REMARK   38  A    between atoms: _88  and  _89
REMARK   39  A    between atoms: _92  and  _94
REMARK   40  A    between atoms: _94  and  _95
REMARK   41  A    between atoms: _94  and  _97
REMARK   42  A    between atoms: _100  and  _102
REMARK   43  A    between atoms: _102  and  _103
REMARK   44  A    between atoms: _102  and  _105
REMARK   45  A    between atoms: _105  and  _106
REMARK   46  A    between atoms: _106  and  _107
REMARK   47  A    between atoms: _107  and  _108
REMARK   48  A    between atoms: _108  and  _109
REMARK   49  A    between atoms: _113  and  _115
REMARK   50  A    between atoms: _115  and  _116
REMARK   51  A    between atoms: _115  and  _118
REMARK   52  A    between atoms: _118  and  _119
REMARK   53  A    between atoms: _119  and  _120
REMARK   54  A    between atoms: _122  and  _124
REMARK   55  A    between atoms: _124  and  _125
REMARK   56  A    between atoms: _124  and  _127
REMARK   57  A    between atoms: _127  and  _128
REMARK   58  A    between atoms: _131  and  _133
REMARK   59  A    between atoms: _133  and  _134
REMARK   60  A    between atoms: _136  and  _138
REMARK   61  A    between atoms: _138  and  _139
REMARK   62  A    between atoms: _141  and  _143
REMARK   63  A    between atoms: _143  and  _144
REMARK   64  A    between atoms: _143  and  _146
REMARK   65  A    between atoms: _146  and  _147
REMARK   66  A    between atoms: _150  and  _152
REMARK   67  A    between atoms: _152  and  _153
REMARK   68  A    between atoms: _155  and  _157
REMARK   69  A    between atoms: _157  and  _158
REMARK   70  A    between atoms: _160  and  _162
REMARK   71  A    between atoms: _162  and  _163
REMARK   72  A    between atoms: _162  and  _165
REMARK   73  A    between atoms: _165  and  _166
REMARK   74  A    between atoms: _172  and  _174
REMARK   75  A    between atoms: _174  and  _175
REMARK   76  A    between atoms: _174  and  _177
REMARK   77  A    between atoms: _177  and  _178
REMARK   78  A    between atoms: _181  and  _183
REMARK   79  A    between atoms: _183  and  _184
REMARK   80  A    between atoms: _183  and  _186
REMARK   81  A    between atoms: _186  and  _187
REMARK   82  A    between atoms: _190  and  _192
REMARK   83  A    between atoms: _192  and  _193
REMARK   84  A    between atoms: _192  and  _195
REMARK   85  A    between atoms: _195  and  _196
REMARK   86  A    between atoms: _200  and  _201
REMARK   87  A    between atoms: _206  and  _208
REMARK   88  A    between atoms: _208  and  _209
REMARK   89  A    between atoms: _208  and  _211
REMARK   90  A    between atoms: _214  and  _216
REMARK   91  A    between atoms: _216  and  _217
REMARK   92  A    between atoms: _216  and  _219
REMARK   93  A    between atoms: _219  and  _220
REMARK   94  A    between atoms: _225  and  _227
REMARK   95  A    between atoms: _227  and  _228
REMARK   96  A    between atoms: _227  and  _230
REMARK   97  A    between atoms: _230  and  _231
REMARK   98  A    between atoms: _234  and  _236
REMARK   99  A    between atoms: _236  and  _237
REMARK  100  A    between atoms: _239  and  _241
REMARK  101  A    between atoms: _241  and  _242
REMARK  102  A    between atoms: _241  and  _244
REMARK  103  A    between atoms: _244  and  _245
REMARK  104  A    between atoms: _245  and  _246
REMARK  105  A    between atoms: _246  and  _247
REMARK  106  A    between atoms: _256  and  _258
REMARK  107  A    between atoms: _258  and  _259
REMARK  108  A    between atoms: _258  and  _261
REMARK  109  A    between atoms: _261  and  _262
REMARK  110  A    between atoms: _267  and  _269
REMARK  111  A    between atoms: _269  and  _270
REMARK  112  A    between atoms: _269  and  _272
REMARK  113  A    between atoms: _272  and  _273
REMARK  114  A    between atoms: _273  and  _274
REMARK  115  A    between atoms: _274  and  _275
REMARK  116  A    between atoms: _284  and  _286
REMARK  117  A    between atoms: _286  and  _287
REMARK  118  A    between atoms: _286  and  _289
REMARK  119  A    between atoms: _289  and  _290
REMARK  120  A    between atoms: _293  and  _295
REMARK  121  A    between atoms: _295  and  _296
REMARK  122  A    between atoms: _295  and  _298
REMARK  123  A    between atoms: _298  and  _299
REMARK  124  A    between atoms: _302  and  _304
REMARK  125  A    between atoms: _304  and  _305
REMARK  126  A    between atoms: _304  and  _307
REMARK  127  A    between atoms: _307  and  _308
REMARK  128  A    between atoms: _311  and  _313
REMARK  129  A    between atoms: _313  and  _314
REMARK  130  A    between atoms: _313  and  _316
REMARK  131  A    between atoms: _316  and  _317
REMARK  132  A    between atoms: _320  and  _322
REMARK  133  A    between atoms: _322  and  _323
REMARK  134  A    between atoms: _322  and  _325
REMARK  135  A    between atoms: _325  and  _326
REMARK  136  A    between atoms: _329  and  _331
REMARK  137  A    between atoms: _331  and  _332
REMARK  138  A    between atoms: _334  and  _336
REMARK  139  A    between atoms: _336  and  _337
REMARK  140  A    between atoms: _340  and  _342
REMARK  141  A    between atoms: _342  and  _343
REMARK  142  A    between atoms: _342  and  _345
REMARK  143  A    between atoms: _345  and  _346
REMARK  144  A    between atoms: _349  and  _351
REMARK  145  A    between atoms: _351  and  _352
REMARK  146  A    between atoms: _351  and  _354
REMARK  147  A    between atoms: _354  and  _355
REMARK  148  A    between atoms: _358  and  _360
REMARK  149  A    between atoms: _360  and  _361
REMARK  150  A    between atoms: _360  and  _363
REMARK  151  A    between atoms: _363  and  _364
REMARK  152  A    between atoms: _367  and  _369
REMARK  153  A    between atoms: _369  and  _370
REMARK  154  A    between atoms: _369  and  _372
REMARK  155  A    between atoms: _375  and  _377
REMARK  156  A    between atoms: _377  and  _378
REMARK  157  A    between atoms: _377  and  _380
REMARK  158  A    between atoms: _380  and  _381
REMARK  159  A    between atoms: _381  and  _382
REMARK  160  A    between atoms: _382  and  _383
REMARK  161  A    between atoms: _383  and  _384
REMARK  162  A    between atoms: _388  and  _390
REMARK  163  A    between atoms: _390  and  _391
REMARK  164  A    between atoms: _390  and  _393
REMARK  165  A    between atoms: _393  and  _394
REMARK  166  A    between atoms: _394  and  _395
REMARK  167  A    between atoms: _397  and  _399
REMARK  168  A    between atoms: _399  and  _400
REMARK  169  A    between atoms: _399  and  _402
REMARK  170  A    between atoms: _402  and  _403
REMARK  171  A    between atoms: _406  and  _408
REMARK  172  A    between atoms: _408  and  _409
REMARK  173  A    between atoms: _411  and  _413
REMARK  174  A    between atoms: _413  and  _414
REMARK  175  A    between atoms: _416  and  _418
REMARK  176  A    between atoms: _418  and  _419
REMARK  177  A    between atoms: _418  and  _421
REMARK  178  A    between atoms: _421  and  _422
REMARK  179  A    between atoms: _425  and  _427
REMARK  180  A    between atoms: _427  and  _428
REMARK  181  A    between atoms: _430  and  _432
REMARK  182  A    between atoms: _432  and  _433
REMARK  183  A    between atoms: _435  and  _437
REMARK  184  A    between atoms: _437  and  _438
REMARK  185  A    between atoms: _437  and  _440
REMARK  186  A    between atoms: _440  and  _441
REMARK  187  A    between atoms: _447  and  _449
REMARK  188  A    between atoms: _449  and  _450
REMARK  189  A    between atoms: _449  and  _452
REMARK  190  A    between atoms: _452  and  _453
REMARK  191  A    between atoms: _456  and  _458
REMARK  192  A    between atoms: _458  and  _459
REMARK  193  A    between atoms: _458  and  _461
REMARK  194  A    between atoms: _464  and  _466
REMARK  195  A    between atoms: _466  and  _467
REMARK  196  A    between atoms: _466  and  _469
REMARK  197  A    between atoms: _469  and  _470
REMARK  198  A    between atoms: _473  and  _475
REMARK  199  A    between atoms: _475  and  _476
REMARK  200  A    between atoms: _479  and  _480
REMARK  201  A    between atoms: _485  and  _487
REMARK  202  A    between atoms: _487  and  _488
REMARK  203  A    between atoms: _487  and  _490
REMARK  204  A    between atoms: _490  and  _491
REMARK  205  A    between atoms: _495  and  _496
REMARK  206  A    between atoms: _501  and  _503
REMARK  207  A    between atoms: _503  and  _504
REMARK  208  A    between atoms: _503  and  _506
REMARK  209  A    between atoms: _509  and  _511
REMARK  210  A    between atoms: _511  and  _512
REMARK  211  A    between atoms: _511  and  _514
REMARK  212  A    between atoms: _514  and  _515
REMARK  213  A    between atoms: _520  and  _522
REMARK  214  A    between atoms: _522  and  _523
REMARK  215  A    between atoms: _522  and  _525
REMARK  216  A    between atoms: _525  and  _526
REMARK  217  A    between atoms: _529  and  _531
REMARK  218  A    between atoms: _531  and  _532
REMARK  219  A    between atoms: _531  and  _534
REMARK  220  A    between atoms: _534  and  _535
REMARK  221  A    between atoms: _538  and  _540
REMARK  222  A    between atoms: _540  and  _541
REMARK  223  A    between atoms: _543  and  _545
REMARK  224  A    between atoms: _545  and  _546
REMARK  225  A    between atoms: _545  and  _548
REMARK  226  A    between atoms: _548  and  _549
REMARK  227  A    between atoms: _549  and  _550
REMARK  228  A    between atoms: _550  and  _551
REMARK  229  A    between atoms: _560  and  _562
REMARK  230  A    between atoms: _562  and  _563
REMARK  231  A    between atoms: _562  and  _565
REMARK  232  A    between atoms: _565  and  _566
REMARK                            x       y       z     vdW  Elec       q    Type
REMARK                         _______ _______ _______ _____ _____    ______ ____
ROOT
ATOM      1  O   HOH     1      18.377  30.932  21.661  0.00  0.00    +0.000 OA
ENDROOT
TORSDOF 0
REMARK  Name = ../refined-set-2016/4zls/4zls_pocket.pdb
REMARK  232 active torsions:
REMARK  status: ('A' for Active; 'I' for Inactive)
REMARK    1  A    between atoms: _1  and  _3
REMARK    2  A    between atoms: _3  and  _4
REMARK    3  A    between atoms: _3  and  _6
REMARK    4  A    between atoms: _6  and  _7
REMARK    5  A    between atoms: _7  and  _8
REMARK    6  A    between atoms: _8  and  _9
REMARK    7  A    between atoms: _18  and  _20
REMARK    8  A    between atoms: _20  and  _21
REMARK    9  A    between atoms: _20  and  _23
REMARK   10  A    between atoms: _23  and  _24
REMARK   11  A    between atoms: _27  and  _29
REMARK   12  A    between atoms: _29  and  _30
REMARK   13  A    between atoms: _29  and  _32
REMARK   14  A    between atoms: _32  and  _33
REMARK   15  A    between atoms: _36  and  _38
REMARK   16  A    between atoms: _38  and  _39
REMARK   17  A    between atoms: _38  and  _41
REMARK   18  A    between atoms: _41  and  _42
REMARK   19  A    between atoms: _45  and  _47
REMARK   20  A    between atoms: _47  and  _48
REMARK   21  A    between atoms: _47  and  _50
REMARK   22  A    between atoms: _50  and  _51
REMARK   23  A    between atoms: _54  and  _56
REMARK   24  A    between atoms: _56  and  _57
REMARK   25  A    between atoms: _59  and  _61
REMARK   26  A    between atoms: _61  and  _62
REMARK   27  A    between atoms: _65  and  _67
REMARK   28  A    between atoms: _67  and  _68
REMARK   29  A    between atoms: _67  and  _70
REMARK   30  A    between atoms: _70  and  _71
REMARK   31  A    between atoms: _74  and  _76
REMARK   32  A    between atoms: _76  and  _77
REMARK   33  A    between atoms: _76  and  _79
REMARK   34  A    between atoms: _79  and  _80
REMARK   35  A    between atoms: _83  and  _85
REMARK   36  A    between atoms: _85  and  _86
REMARK   37  A    between atoms: _85  and  _88
REMARK   38  A    between atoms: _88  and  _89
REMARK   39  A    between atoms: _92  and  _94
REMARK   40  A    between atoms: _94  and  _95
REMARK   41  A    between atoms: _94  and  _97
REMARK   42  A    between atoms: _100  and  _102
REMARK   43  A    between atoms: _102  and  _103
REMARK   44  A    between atoms: _102  and  _105
REMARK   45  A    between atoms: _105  and  _106
REMARK   46  A    between atoms: _106  and  _107
REMARK   47  A    between atoms: _107  and  _108
REMARK   48  A    between atoms: _108  and  _109
REMARK   49  A    between atoms: _113  and  _115
REMARK   50  A    between atoms: _115  and  _116
REMARK   51  A    between atoms: _115  and  _118
REMARK   52  A    between atoms: _118  and  _119
REMARK   53  A    between atoms: _119  and  _120
REMARK   54  A    between atoms: _122  and  _124
REMARK   55  A    between atoms: _124  and  _125
REMARK   56  A    between atoms: _124  and  _127
REMARK   57  A    between atoms: _127  and  _128
REMARK   58  A    between atoms: _131  and  _133
REMARK   59  A    between atoms: _133  and  _134
REMARK   60  A    between atoms: _136  and  _138
REMARK   61  A    between atoms: _138  and  _139
REMARK   62  A    between atoms: _141  and  _143
REMARK   63  A    between atoms: _143  and  _144
REMARK   64  A    between atoms: _143  and  _146
REMARK   65  A    between atoms: _146  and  _147
REMARK   66  A    between atoms: _150  and  _152
REMARK   67  A    between atoms: _152  and  _153
REMARK   68  A    between atoms: _155  and  _157
REMARK   69  A    between atoms: _157  and  _158
REMARK   70  A    between atoms: _160  and  _162
REMARK   71  A    between atoms: _162  and  _163
REMARK   72  A    between atoms: _162  and  _165
REMARK   73  A    between atoms: _165  and  _166
REMARK   74  A    between atoms: _172  and  _174
REMARK   75  A    between atoms: _174  and  _175
REMARK   76  A    between atoms: _174  and  _177
REMARK   77  A    between atoms: _177  and  _178
REMARK   78  A    between atoms: _181  and  _183
REMARK   79  A    between atoms: _183  and  _184
REMARK   80  A    between atoms: _183  and  _186
REMARK   81  A    between atoms: _186  and  _187
REMARK   82  A    between atoms: _190  and  _192
REMARK   83  A    between atoms: _192  and  _193
REMARK   84  A    between atoms: _192  and  _195
REMARK   85  A    between atoms: _195  and  _196
REMARK   86  A    between atoms: _200  and  _201
REMARK   87  A    between atoms: _206  and  _208
REMARK   88  A    between atoms: _208  and  _209
REMARK   89  A    between atoms: _208  and  _211
REMARK   90  A    between atoms: _214  and  _216
REMARK   91  A    between atoms: _216  and  _217
REMARK   92  A    between atoms: _216  and  _219
REMARK   93  A    between atoms: _219  and  _220
REMARK   94  A    between atoms: _225  and  _227
REMARK   95  A    between atoms: _227  and  _228
REMARK   96  A    between atoms: _227  and  _230
REMARK   97  A    between atoms: _230  and  _231
REMARK   98  A    between atoms: _234  and  _236
REMARK   99  A    between atoms: _236  and  _237
REMARK  100  A    between atoms: _239  and  _241
REMARK  101  A    between atoms: _241  and  _242
REMARK  102  A    between atoms: _241  and  _244
REMARK  103  A    between atoms: _244  and  _245
REMARK  104  A    between atoms: _245  and  _246
REMARK  105  A    between atoms: _246  and  _247
REMARK  106  A    between atoms: _256  and  _258
REMARK  107  A    between atoms: _258  and  _259
REMARK  108  A    between atoms: _258  and  _261
REMARK  109  A    between atoms: _261  and  _262
REMARK  110  A    between atoms: _267  and  _269
REMARK  111  A    between atoms: _269  and  _270
REMARK  112  A    between atoms: _269  and  _272
REMARK  113  A    between atoms: _272  and  _273
REMARK  114  A    between atoms: _273  and  _274
REMARK  115  A    between atoms: _274  and  _275
REMARK  116  A    between atoms: _284  and  _286
REMARK  117  A    between atoms: _286  and  _287
REMARK  118  A    between atoms: _286  and  _289
REMARK  119  A    between atoms: _289  and  _290
REMARK  120  A    between atoms: _293  and  _295
REMARK  121  A    between atoms: _295  and  _296
REMARK  122  A    between atoms: _295  and  _298
REMARK  123  A    between atoms: _298  and  _299
REMARK  124  A    between atoms: _302  and  _304
REMARK  125  A    between atoms: _304  and  _305
REMARK  126  A    between atoms: _304  and  _307
REMARK  127  A    between atoms: _307  and  _308
REMARK  128  A    between atoms: _311  and  _313
REMARK  129  A    between atoms: _313  and  _314
REMARK  130  A    between atoms: _313  and  _316
REMARK  131  A    between atoms: _316  and  _317
REMARK  132  A    between atoms: _320  and  _322
REMARK  133  A    between atoms: _322  and  _323
REMARK  134  A    between atoms: _322  and  _325
REMARK  135  A    between atoms: _325  and  _326
REMARK  136  A    between atoms: _329  and  _331
REMARK  137  A    between atoms: _331  and  _332
REMARK  138  A    between atoms: _334  and  _336
REMARK  139  A    between atoms: _336  and  _337
REMARK  140  A    between atoms: _340  and  _342
REMARK  141  A    between atoms: _342  and  _343
REMARK  142  A    between atoms: _342  and  _345
REMARK  143  A    between atoms: _345  and  _346
REMARK  144  A    between atoms: _349  and  _351
REMARK  145  A    between atoms: _351  and  _352
REMARK  146  A    between atoms: _351  and  _354
REMARK  147  A    between atoms: _354  and  _355
REMARK  148  A    between atoms: _358  and  _360
REMARK  149  A    between atoms: _360  and  _361
REMARK  150  A    between atoms: _360  and  _363
REMARK  151  A    between atoms: _363  and  _364
REMARK  152  A    between atoms: _367  and  _369
REMARK  153  A    between atoms: _369  and  _370
REMARK  154  A    between atoms: _369  and  _372
REMARK  155  A    between atoms: _375  and  _377
REMARK  156  A    between atoms: _377  and  _378
REMARK  157  A    between atoms: _377  and  _380
REMARK  158  A    between atoms: _380  and  _381
REMARK  159  A    between atoms: _381  and  _382
REMARK  160  A    between atoms: _382  and  _383
REMARK  161  A    between atoms: _383  and  _384
REMARK  162  A    between atoms: _388  and  _390
REMARK  163  A    between atoms: _390  and  _391
REMARK  164  A    between atoms: _390  and  _393
REMARK  165  A    between atoms: _393  and  _394
REMARK  166  A    between atoms: _394  and  _395
REMARK  167  A    between atoms: _397  and  _399
REMARK  168  A    between atoms: _399  and  _400
REMARK  169  A    between atoms: _399  and  _402
REMARK  170  A    between atoms: _402  and  _403
REMARK  171  A    between atoms: _406  and  _408
REMARK  172  A    between atoms: _408  and  _409
REMARK  173  A    between atoms: _411  and  _413
REMARK  174  A    between atoms: _413  and  _414
REMARK  175  A    between atoms: _416  and  _418
REMARK  176  A    between atoms: _418  and  _419
REMARK  177  A    between atoms: _418  and  _421
REMARK  178  A    between atoms: _421  and  _422
REMARK  179  A    between atoms: _425  and  _427
REMARK  180  A    between atoms: _427  and  _428
REMARK  181  A    between atoms: _430  and  _432
REMARK  182  A    between atoms: _432  and  _433
REMARK  183  A    between atoms: _435  and  _437
REMARK  184  A    between atoms: _437  and  _438
REMARK  185  A    between atoms: _437  and  _440
REMARK  186  A    between atoms: _440  and  _441
REMARK  187  A    between atoms: _447  and  _449
REMARK  188  A    between atoms: _449  and  _450
REMARK  189  A    between atoms: _449  and  _452
REMARK  190  A    between atoms: _452  and  _453
REMARK  191  A    between atoms: _456  and  _458
REMARK  192  A    between atoms: _458  and  _459
REMARK  193  A    between atoms: _458  and  _461
REMARK  194  A    between atoms: _464  and  _466
REMARK  195  A    between atoms: _466  and  _467
REMARK  196  A    between atoms: _466  and  _469
REMARK  197  A    between atoms: _469  and  _470
REMARK  198  A    between atoms: _473  and  _475
REMARK  199  A    between atoms: _475  and  _476
REMARK  200  A    between atoms: _479  and  _480
REMARK  201  A    between atoms: _485  and  _487
REMARK  202  A    between atoms: _487  and  _488
REMARK  203  A    between atoms: _487  and  _490
REMARK  204  A    between atoms: _490  and  _491
REMARK  205  A    between atoms: _495  and  _496
REMARK  206  A    between atoms: _501  and  _503
REMARK  207  A    between atoms: _503  and  _504
REMARK  208  A    between atoms: _503  and  _506
REMARK  209  A    between atoms: _509  and  _511
REMARK  210  A    between atoms: _511  and  _512
REMARK  211  A    between atoms: _511  and  _514
REMARK  212  A    between atoms: _514  and  _515
REMARK  213  A    between atoms: _520  and  _522
REMARK  214  A    between atoms: _522  and  _523
REMARK  215  A    between atoms: _522  and  _525
REMARK  216  A    between atoms: _525  and  _526
REMARK  217  A    between atoms: _529  and  _531
REMARK  218  A    between atoms: _531  and  _532
REMARK  219  A    between atoms: _531  and  _534
REMARK  220  A    between atoms: _534  and  _535
REMARK  221  A    between atoms: _538  and  _540
REMARK  222  A    between atoms: _540  and  _541
REMARK  223  A    between atoms: _543  and  _545
REMARK  224  A    between atoms: _545  and  _546
REMARK  225  A    between atoms: _545  and  _548
REMARK  226  A    between atoms: _548  and  _549
REMARK  227  A    between atoms: _549  and  _550
REMARK  228  A    between atoms: _550  and  _551
REMARK  229  A    between atoms: _560  and  _562
REMARK  230  A    between atoms: _562  and  _563
REMARK  231  A    between atoms: _562  and  _565
REMARK  232  A    between atoms: _565  and  _566
REMARK                            x       y       z     vdW  Elec       q    Type
REMARK                         _______ _______ _______ _____ _____    ______ ____
ROOT
ATOM      1  O   HOH     1      22.924  14.390  18.196  0.00  0.00    +0.000 OA
ENDROOT
TORSDOF 0
REMARK  Name = ../refined-set-2016/4zls/4zls_pocket.pdb
REMARK  232 active torsions:
REMARK  status: ('A' for Active; 'I' for Inactive)
REMARK    1  A    between atoms: _1  and  _3
REMARK    2  A    between atoms: _3  and  _4
REMARK    3  A    between atoms: _3  and  _6
REMARK    4  A    between atoms: _6  and  _7
REMARK    5  A    between atoms: _7  and  _8
REMARK    6  A    between atoms: _8  and  _9
REMARK    7  A    between atoms: _18  and  _20
REMARK    8  A    between atoms: _20  and  _21
REMARK    9  A    between atoms: _20  and  _23
REMARK   10  A    between atoms: _23  and  _24
REMARK   11  A    between atoms: _27  and  _29
REMARK   12  A    between atoms: _29  and  _30
REMARK   13  A    between atoms: _29  and  _32
REMARK   14  A    between atoms: _32  and  _33
REMARK   15  A    between atoms: _36  and  _38
REMARK   16  A    between atoms: _38  and  _39
REMARK   17  A    between atoms: _38  and  _41
REMARK   18  A    between atoms: _41  and  _42
REMARK   19  A    between atoms: _45  and  _47
REMARK   20  A    between atoms: _47  and  _48
REMARK   21  A    between atoms: _47  and  _50
REMARK   22  A    between atoms: _50  and  _51
REMARK   23  A    between atoms: _54  and  _56
REMARK   24  A    between atoms: _56  and  _57
REMARK   25  A    between atoms: _59  and  _61
REMARK   26  A    between atoms: _61  and  _62
REMARK   27  A    between atoms: _65  and  _67
REMARK   28  A    between atoms: _67  and  _68
REMARK   29  A    between atoms: _67  and  _70
REMARK   30  A    between atoms: _70  and  _71
REMARK   31  A    between atoms: _74  and  _76
REMARK   32  A    between atoms: _76  and  _77
REMARK   33  A    between atoms: _76  and  _79
REMARK   34  A    between atoms: _79  and  _80
REMARK   35  A    between atoms: _83  and  _85
REMARK   36  A    between atoms: _85  and  _86
REMARK   37  A    between atoms: _85  and  _88
REMARK   38  A    between atoms: _88  and  _89
REMARK   39  A    between atoms: _92  and  _94
REMARK   40  A    between atoms: _94  and  _95
REMARK   41  A    between atoms: _94  and  _97
REMARK   42  A    between atoms: _100  and  _102
REMARK   43  A    between atoms: _102  and  _103
REMARK   44  A    between atoms: _102  and  _105
REMARK   45  A    between atoms: _105  and  _106
REMARK   46  A    between atoms: _106  and  _107
REMARK   47  A    between atoms: _107  and  _108
REMARK   48  A    between atoms: _108  and  _109
REMARK   49  A    between atoms: _113  and  _115
REMARK   50  A    between atoms: _115  and  _116
REMARK   51  A    between atoms: _115  and  _118
REMARK   52  A    between atoms: _118  and  _119
REMARK   53  A    between atoms: _119  and  _120
REMARK   54  A    between atoms: _122  and  _124
REMARK   55  A    between atoms: _124  and  _125
REMARK   56  A    between atoms: _124  and  _127
REMARK   57  A    between atoms: _127  and  _128
REMARK   58  A    between atoms: _131  and  _133
REMARK   59  A    between atoms: _133  and  _134
REMARK   60  A    between atoms: _136  and  _138
REMARK   61  A    between atoms: _138  and  _139
REMARK   62  A    between atoms: _141  and  _143
REMARK   63  A    between atoms: _143  and  _144
REMARK   64  A    between atoms: _143  and  _146
REMARK   65  A    between atoms: _146  and  _147
REMARK   66  A    between atoms: _150  and  _152
REMARK   67  A    between atoms: _152  and  _153
REMARK   68  A    between atoms: _155  and  _157
REMARK   69  A    between atoms: _157  and  _158
REMARK   70  A    between atoms: _160  and  _162
REMARK   71  A    between atoms: _162  and  _163
REMARK   72  A    between atoms: _162  and  _165
REMARK   73  A    between atoms: _165  and  _166
REMARK   74  A    between atoms: _172  and  _174
REMARK   75  A    between atoms: _174  and  _175
REMARK   76  A    between atoms: _174  and  _177
REMARK   77  A    between atoms: _177  and  _178
REMARK   78  A    between atoms: _181  and  _183
REMARK   79  A    between atoms: _183  and  _184
REMARK   80  A    between atoms: _183  and  _186
REMARK   81  A    between atoms: _186  and  _187
REMARK   82  A    between atoms: _190  and  _192
REMARK   83  A    between atoms: _192  and  _193
REMARK   84  A    between atoms: _192  and  _195
REMARK   85  A    between atoms: _195  and  _196
REMARK   86  A    between atoms: _200  and  _201
REMARK   87  A    between atoms: _206  and  _208
REMARK   88  A    between atoms: _208  and  _209
REMARK   89  A    between atoms: _208  and  _211
REMARK   90  A    between atoms: _214  and  _216
REMARK   91  A    between atoms: _216  and  _217
REMARK   92  A    between atoms: _216  and  _219
REMARK   93  A    between atoms: _219  and  _220
REMARK   94  A    between atoms: _225  and  _227
REMARK   95  A    between atoms: _227  and  _228
REMARK   96  A    between atoms: _227  and  _230
REMARK   97  A    between atoms: _230  and  _231
REMARK   98  A    between atoms: _234  and  _236
REMARK   99  A    between atoms: _236  and  _237
REMARK  100  A    between atoms: _239  and  _241
REMARK  101  A    between atoms: _241  and  _242
REMARK  102  A    between atoms: _241  and  _244
REMARK  103  A    between atoms: _244  and  _245
REMARK  104  A    between atoms: _245  and  _246
REMARK  105  A    between atoms: _246  and  _247
REMARK  106  A    between atoms: _256  and  _258
REMARK  107  A    between atoms: _258  and  _259
REMARK  108  A    between atoms: _258  and  _261
REMARK  109  A    between atoms: _261  and  _262
REMARK  110  A    between atoms: _267  and  _269
REMARK  111  A    between atoms: _269  and  _270
REMARK  112  A    between atoms: _269  and  _272
REMARK  113  A    between atoms: _272  and  _273
REMARK  114  A    between atoms: _273  and  _274
REMARK  115  A    between atoms: _274  and  _275
REMARK  116  A    between atoms: _284  and  _286
REMARK  117  A    between atoms: _286  and  _287
REMARK  118  A    between atoms: _286  and  _289
REMARK  119  A    between atoms: _289  and  _290
REMARK  120  A    between atoms: _293  and  _295
REMARK  121  A    between atoms: _295  and  _296
REMARK  122  A    between atoms: _295  and  _298
REMARK  123  A    between atoms: _298  and  _299
REMARK  124  A    between atoms: _302  and  _304
REMARK  125  A    between atoms: _304  and  _305
REMARK  126  A    between atoms: _304  and  _307
REMARK  127  A    between atoms: _307  and  _308
REMARK  128  A    between atoms: _311  and  _313
REMARK  129  A    between atoms: _313  and  _314
REMARK  130  A    between atoms: _313  and  _316
REMARK  131  A    between atoms: _316  and  _317
REMARK  132  A    between atoms: _320  and  _322
REMARK  133  A    between atoms: _322  and  _323
REMARK  134  A    between atoms: _322  and  _325
REMARK  135  A    between atoms: _325  and  _326
REMARK  136  A    between atoms: _329  and  _331
REMARK  137  A    between atoms: _331  and  _332
REMARK  138  A    between atoms: _334  and  _336
REMARK  139  A    between atoms: _336  and  _337
REMARK  140  A    between atoms: _340  and  _342
REMARK  141  A    between atoms: _342  and  _343
REMARK  142  A    between atoms: _342  and  _345
REMARK  143  A    between atoms: _345  and  _346
REMARK  144  A    between atoms: _349  and  _351
REMARK  145  A    between atoms: _351  and  _352
REMARK  146  A    between atoms: _351  and  _354
REMARK  147  A    between atoms: _354  and  _355
REMARK  148  A    between atoms: _358  and  _360
REMARK  149  A    between atoms: _360  and  _361
REMARK  150  A    between atoms: _360  and  _363
REMARK  151  A    between atoms: _363  and  _364
REMARK  152  A    between atoms: _367  and  _369
REMARK  153  A    between atoms: _369  and  _370
REMARK  154  A    between atoms: _369  and  _372
REMARK  155  A    between atoms: _375  and  _377
REMARK  156  A    between atoms: _377  and  _378
REMARK  157  A    between atoms: _377  and  _380
REMARK  158  A    between atoms: _380  and  _381
REMARK  159  A    between atoms: _381  and  _382
REMARK  160  A    between atoms: _382  and  _383
REMARK  161  A    between atoms: _383  and  _384
REMARK  162  A    between atoms: _388  and  _390
REMARK  163  A    between atoms: _390  and  _391
REMARK  164  A    between atoms: _390  and  _393
REMARK  165  A    between atoms: _393  and  _394
REMARK  166  A    between atoms: _394  and  _395
REMARK  167  A    between atoms: _397  and  _399
REMARK  168  A    between atoms: _399  and  _400
REMARK  169  A    between atoms: _399  and  _402
REMARK  170  A    between atoms: _402  and  _403
REMARK  171  A    between atoms: _406  and  _408
REMARK  172  A    between atoms: _408  and  _409
REMARK  173  A    between atoms: _411  and  _413
REMARK  174  A    between atoms: _413  and  _414
REMARK  175  A    between atoms: _416  and  _418
REMARK  176  A    between atoms: _418  and  _419
REMARK  177  A    between atoms: _418  and  _421
REMARK  178  A    between atoms: _421  and  _422
REMARK  179  A    between atoms: _425  and  _427
REMARK  180  A    between atoms: _427  and  _428
REMARK  181  A    between atoms: _430  and  _432
REMARK  182  A    between atoms: _432  and  _433
REMARK  183  A    between atoms: _435  and  _437
REMARK  184  A    between atoms: _437  and  _438
REMARK  185  A    between atoms: _437  and  _440
REMARK  186  A    between atoms: _440  and  _441
REMARK  187  A    between atoms: _447  and  _449
REMARK  188  A    between atoms: _449  and  _450
REMARK  189  A    between atoms: _449  and  _452
REMARK  190  A    between atoms: _452  and  _453
REMARK  191  A    between atoms: _456  and  _458
REMARK  192  A    between atoms: _458  and  _459
REMARK  193  A    between atoms: _458  and  _461
REMARK  194  A    between atoms: _464  and  _466
REMARK  195  A    between atoms: _466  and  _467
REMARK  196  A    between atoms: _466  and  _469
REMARK  197  A    between atoms: _469  and  _470
REMARK  198  A    between atoms: _473  and  _475
REMARK  199  A    between atoms: _475  and  _476
REMARK  200  A    between atoms: _479  and  _480
REMARK  201  A    between atoms: _485  and  _487
REMARK  202  A    between atoms: _487  and  _488
REMARK  203  A    between atoms: _487  and  _490
REMARK  204  A    between atoms: _490  and  _491
REMARK  205  A    between atoms: _495  and  _496
REMARK  206  A    between atoms: _501  and  _503
REMARK  207  A    between atoms: _503  and  _504
REMARK  208  A    between atoms: _503  and  _506
REMARK  209  A    between atoms: _509  and  _511
REMARK  210  A    between atoms: _511  and  _512
REMARK  211  A    between atoms: _511  and  _514
REMARK  212  A    between atoms: _514  and  _515
REMARK  213  A    between atoms: _520  and  _522
REMARK  214  A    between atoms: _522  and  _523
REMARK  215  A    between atoms: _522  and  _525
REMARK  216  A    between atoms: _525  and  _526
REMARK  217  A    between atoms: _529  and  _531
REMARK  218  A    between atoms: _531  and  _532
REMARK  219  A    between atoms: _531  and  _534
REMARK  220  A    between atoms: _534  and  _535
REMARK  221  A    between atoms: _538  and  _540
REMARK  222  A    between atoms: _540  and  _541
REMARK  223  A    between atoms: _543  and  _545
REMARK  224  A    between atoms: _545  and  _546
REMARK  225  A    between atoms: _545  and  _548
REMARK  226  A    between atoms: _548  and  _549
REMARK  227  A    between atoms: _549  and  _550
REMARK  228  A    between atoms: _550  and  _551
REMARK  229  A    between atoms: _560  and  _562
REMARK  230  A    between atoms: _562  and  _563
REMARK  231  A    between atoms: _562  and  _565
REMARK  232  A    between atoms: _565  and  _566
REMARK                            x       y       z     vdW  Elec       q    Type
REMARK                         _______ _______ _______ _____ _____    ______ ____
ROOT
ATOM      1  O   HOH     1      20.870  27.935  18.544  0.00  0.00    +0.000 OA
ENDROOT
TORSDOF 0
REMARK  Name = ../refined-set-2016/4zls/4zls_pocket.pdb
REMARK  232 active torsions:
REMARK  status: ('A' for Active; 'I' for Inactive)
REMARK    1  A    between atoms: _1  and  _3
REMARK    2  A    between atoms: _3  and  _4
REMARK    3  A    between atoms: _3  and  _6
REMARK    4  A    between atoms: _6  and  _7
REMARK    5  A    between atoms: _7  and  _8
REMARK    6  A    between atoms: _8  and  _9
REMARK    7  A    between atoms: _18  and  _20
REMARK    8  A    between atoms: _20  and  _21
REMARK    9  A    between atoms: _20  and  _23
REMARK   10  A    between atoms: _23  and  _24
REMARK   11  A    between atoms: _27  and  _29
REMARK   12  A    between atoms: _29  and  _30
REMARK   13  A    between atoms: _29  and  _32
REMARK   14  A    between atoms: _32  and  _33
REMARK   15  A    between atoms: _36  and  _38
REMARK   16  A    between atoms: _38  and  _39
REMARK   17  A    between atoms: _38  and  _41
REMARK   18  A    between atoms: _41  and  _42
REMARK   19  A    between atoms: _45  and  _47
REMARK   20  A    between atoms: _47  and  _48
REMARK   21  A    between atoms: _47  and  _50
REMARK   22  A    between atoms: _50  and  _51
REMARK   23  A    between atoms: _54  and  _56
REMARK   24  A    between atoms: _56  and  _57
REMARK   25  A    between atoms: _59  and  _61
REMARK   26  A    between atoms: _61  and  _62
REMARK   27  A    between atoms: _65  and  _67
REMARK   28  A    between atoms: _67  and  _68
REMARK   29  A    between atoms: _67  and  _70
REMARK   30  A    between atoms: _70  and  _71
REMARK   31  A    between atoms: _74  and  _76
REMARK   32  A    between atoms: _76  and  _77
REMARK   33  A    between atoms: _76  and  _79
REMARK   34  A    between atoms: _79  and  _80
REMARK   35  A    between atoms: _83  and  _85
REMARK   36  A    between atoms: _85  and  _86
REMARK   37  A    between atoms: _85  and  _88
REMARK   38  A    between atoms: _88  and  _89
REMARK   39  A    between atoms: _92  and  _94
REMARK   40  A    between atoms: _94  and  _95
REMARK   41  A    between atoms: _94  and  _97
REMARK   42  A    between atoms: _100  and  _102
REMARK   43  A    between atoms: _102  and  _103
REMARK   44  A    between atoms: _102  and  _105
REMARK   45  A    between atoms: _105  and  _106
REMARK   46  A    between atoms: _106  and  _107
REMARK   47  A    between atoms: _107  and  _108
REMARK   48  A    between atoms: _108  and  _109
REMARK   49  A    between atoms: _113  and  _115
REMARK   50  A    between atoms: _115  and  _116
REMARK   51  A    between atoms: _115  and  _118
REMARK   52  A    between atoms: _118  and  _119
REMARK   53  A    between atoms: _119  and  _120
REMARK   54  A    between atoms: _122  and  _124
REMARK   55  A    between atoms: _124  and  _125
REMARK   56  A    between atoms: _124  and  _127
REMARK   57  A    between atoms: _127  and  _128
REMARK   58  A    between atoms: _131  and  _133
REMARK   59  A    between atoms: _133  and  _134
REMARK   60  A    between atoms: _136  and  _138
REMARK   61  A    between atoms: _138  and  _139
REMARK   62  A    between atoms: _141  and  _143
REMARK   63  A    between atoms: _143  and  _144
REMARK   64  A    between atoms: _143  and  _146
REMARK   65  A    between atoms: _146  and  _147
REMARK   66  A    between atoms: _150  and  _152
REMARK   67  A    between atoms: _152  and  _153
REMARK   68  A    between atoms: _155  and  _157
REMARK   69  A    between atoms: _157  and  _158
REMARK   70  A    between atoms: _160  and  _162
REMARK   71  A    between atoms: _162  and  _163
REMARK   72  A    between atoms: _162  and  _165
REMARK   73  A    between atoms: _165  and  _166
REMARK   74  A    between atoms: _172  and  _174
REMARK   75  A    between atoms: _174  and  _175
REMARK   76  A    between atoms: _174  and  _177
REMARK   77  A    between atoms: _177  and  _178
REMARK   78  A    between atoms: _181  and  _183
REMARK   79  A    between atoms: _183  and  _184
REMARK   80  A    between atoms: _183  and  _186
REMARK   81  A    between atoms: _186  and  _187
REMARK   82  A    between atoms: _190  and  _192
REMARK   83  A    between atoms: _192  and  _193
REMARK   84  A    between atoms: _192  and  _195
REMARK   85  A    between atoms: _195  and  _196
REMARK   86  A    between atoms: _200  and  _201
REMARK   87  A    between atoms: _206  and  _208
REMARK   88  A    between atoms: _208  and  _209
REMARK   89  A    between atoms: _208  and  _211
REMARK   90  A    between atoms: _214  and  _216
REMARK   91  A    between atoms: _216  and  _217
REMARK   92  A    between atoms: _216  and  _219
REMARK   93  A    between atoms: _219  and  _220
REMARK   94  A    between atoms: _225  and  _227
REMARK   95  A    between atoms: _227  and  _228
REMARK   96  A    between atoms: _227  and  _230
REMARK   97  A    between atoms: _230  and  _231
REMARK   98  A    between atoms: _234  and  _236
REMARK   99  A    between atoms: _236  and  _237
REMARK  100  A    between atoms: _239  and  _241
REMARK  101  A    between atoms: _241  and  _242
REMARK  102  A    between atoms: _241  and  _244
REMARK  103  A    between atoms: _244  and  _245
REMARK  104  A    between atoms: _245  and  _246
REMARK  105  A    between atoms: _246  and  _247
REMARK  106  A    between atoms: _256  and  _258
REMARK  107  A    between atoms: _258  and  _259
REMARK  108  A    between atoms: _258  and  _261
REMARK  109  A    between atoms: _261  and  _262
REMARK  110  A    between atoms: _267  and  _269
REMARK  111  A    between atoms: _269  and  _270
REMARK  112  A    between atoms: _269  and  _272
REMARK  113  A    between atoms: _272  and  _273
REMARK  114  A    between atoms: _273  and  _274
REMARK  115  A    between atoms: _274  and  _275
REMARK  116  A    between atoms: _284  and  _286
REMARK  117  A    between atoms: _286  and  _287
REMARK  118  A    between atoms: _286  and  _289
REMARK  119  A    between atoms: _289  and  _290
REMARK  120  A    between atoms: _293  and  _295
REMARK  121  A    between atoms: _295  and  _296
REMARK  122  A    between atoms: _295  and  _298
REMARK  123  A    between atoms: _298  and  _299
REMARK  124  A    between atoms: _302  and  _304
REMARK  125  A    between atoms: _304  and  _305
REMARK  126  A    between atoms: _304  and  _307
REMARK  127  A    between atoms: _307  and  _308
REMARK  128  A    between atoms: _311  and  _313
REMARK  129  A    between atoms: _313  and  _314
REMARK  130  A    between atoms: _313  and  _316
REMARK  131  A    between atoms: _316  and  _317
REMARK  132  A    between atoms: _320  and  _322
REMARK  133  A    between atoms: _322  and  _323
REMARK  134  A    between atoms: _322  and  _325
REMARK  135  A    between atoms: _325  and  _326
REMARK  136  A    between atoms: _329  and  _331
REMARK  137  A    between atoms: _331  and  _332
REMARK  138  A    between atoms: _334  and  _336
REMARK  139  A    between atoms: _336  and  _337
REMARK  140  A    between atoms: _340  and  _342
REMARK  141  A    between atoms: _342  and  _343
REMARK  142  A    between atoms: _342  and  _345
REMARK  143  A    between atoms: _345  and  _346
REMARK  144  A    between atoms: _349  and  _351
REMARK  145  A    between atoms: _351  and  _352
REMARK  146  A    between atoms: _351  and  _354
REMARK  147  A    between atoms: _354  and  _355
REMARK  148  A    between atoms: _358  and  _360
REMARK  149  A    between atoms: _360  and  _361
REMARK  150  A    between atoms: _360  and  _363
REMARK  151  A    between atoms: _363  and  _364
REMARK  152  A    between atoms: _367  and  _369
REMARK  153  A    between atoms: _369  and  _370
REMARK  154  A    between atoms: _369  and  _372
REMARK  155  A    between atoms: _375  and  _377
REMARK  156  A    between atoms: _377  and  _378
REMARK  157  A    between atoms: _377  and  _380
REMARK  158  A    between atoms: _380  and  _381
REMARK  159  A    between atoms: _381  and  _382
REMARK  160  A    between atoms: _382  and  _383
REMARK  161  A    between atoms: _383  and  _384
REMARK  162  A    between atoms: _388  and  _390
REMARK  163  A    between atoms: _390  and  _391
REMARK  164  A    between atoms: _390  and  _393
REMARK  165  A    between atoms: _393  and  _394
REMARK  166  A    between atoms: _394  and  _395
REMARK  167  A    between atoms: _397  and  _399
REMARK  168  A    between atoms: _399  and  _400
REMARK  169  A    between atoms: _399  and  _402
REMARK  170  A    between atoms: _402  and  _403
REMARK  171  A    between atoms: _406  and  _408
REMARK  172  A    between atoms: _408  and  _409
REMARK  173  A    between atoms: _411  and  _413
REMARK  174  A    between atoms: _413  and  _414
REMARK  175  A    between atoms: _416  and  _418
REMARK  176  A    between atoms: _418  and  _419
REMARK  177  A    between atoms: _418  and  _421
REMARK  178  A    between atoms: _421  and  _422
REMARK  179  A    between atoms: _425  and  _427
REMARK  180  A    between atoms: _427  and  _428
REMARK  181  A    between atoms: _430  and  _432
REMARK  182  A    between atoms: _432  and  _433
REMARK  183  A    between atoms: _435  and  _437
REMARK  184  A    between atoms: _437  and  _438
REMARK  185  A    between atoms: _437  and  _440
REMARK  186  A    between atoms: _440  and  _441
REMARK  187  A    between atoms: _447  and  _449
REMARK  188  A    between atoms: _449  and  _450
REMARK  189  A    between atoms: _449  and  _452
REMARK  190  A    between atoms: _452  and  _453
REMARK  191  A    between atoms: _456  and  _458
REMARK  192  A    between atoms: _458  and  _459
REMARK  193  A    between atoms: _458  and  _461
REMARK  194  A    between atoms: _464  and  _466
REMARK  195  A    between atoms: _466  and  _467
REMARK  196  A    between atoms: _466  and  _469
REMARK  197  A    between atoms: _469  and  _470
REMARK  198  A    between atoms: _473  and  _475
REMARK  199  A    between atoms: _475  and  _476
REMARK  200  A    between atoms: _479  and  _480
REMARK  201  A    between atoms: _485  and  _487
REMARK  202  A    between atoms: _487  and  _488
REMARK  203  A    between atoms: _487  and  _490
REMARK  204  A    between atoms: _490  and  _491
REMARK  205  A    between atoms: _495  and  _496
REMARK  206  A    between atoms: _501  and  _503
REMARK  207  A    between atoms: _503  and  _504
REMARK  208  A    between atoms: _503  and  _506
REMARK  209  A    between atoms: _509  and  _511
REMARK  210  A    between atoms: _511  and  _512
REMARK  211  A    between atoms: _511  and  _514
REMARK  212  A    between atoms: _514  and  _515
REMARK  213  A    between atoms: _520  and  _522
REMARK  214  A    between atoms: _522  and  _523
REMARK  215  A    between atoms: _522  and  _525
REMARK  216  A    between atoms: _525  and  _526
REMARK  217  A    between atoms: _529  and  _531
REMARK  218  A    between atoms: _531  and  _532
REMARK  219  A    between atoms: _531  and  _534
REMARK  220  A    between atoms: _534  and  _535
REMARK  221  A    between atoms: _538  and  _540
REMARK  222  A    between atoms: _540  and  _541
REMARK  223  A    between atoms: _543  and  _545
REMARK  224  A    between atoms: _545  and  _546
REMARK  225  A    between atoms: _545  and  _548
REMARK  226  A    between atoms: _548  and  _549
REMARK  227  A    between atoms: _549  and  _550
REMARK  228  A    between atoms: _550  and  _551
REMARK  229  A    between atoms: _560  and  _562
REMARK  230  A    between atoms: _562  and  _563
REMARK  231  A    between atoms: _562  and  _565
REMARK  232  A    between atoms: _565  and  _566
REMARK                            x       y       z     vdW  Elec       q    Type
REMARK                         _______ _______ _______ _____ _____    ______ ____
ROOT
ATOM      1  O   HOH     1       8.639  21.997  13.704  0.00  0.00    +0.000 OA
ENDROOT
TORSDOF 0
REMARK  Name = ../refined-set-2016/4zls/4zls_pocket.pdb
REMARK  232 active torsions:
REMARK  status: ('A' for Active; 'I' for Inactive)
REMARK    1  A    between atoms: _1  and  _3
REMARK    2  A    between atoms: _3  and  _4
REMARK    3  A    between atoms: _3  and  _6
REMARK    4  A    between atoms: _6  and  _7
REMARK    5  A    between atoms: _7  and  _8
REMARK    6  A    between atoms: _8  and  _9
REMARK    7  A    between atoms: _18  and  _20
REMARK    8  A    between atoms: _20  and  _21
REMARK    9  A    between atoms: _20  and  _23
REMARK   10  A    between atoms: _23  and  _24
REMARK   11  A    between atoms: _27  and  _29
REMARK   12  A    between atoms: _29  and  _30
REMARK   13  A    between atoms: _29  and  _32
REMARK   14  A    between atoms: _32  and  _33
REMARK   15  A    between atoms: _36  and  _38
REMARK   16  A    between atoms: _38  and  _39
REMARK   17  A    between atoms: _38  and  _41
REMARK   18  A    between atoms: _41  and  _42
REMARK   19  A    between atoms: _45  and  _47
REMARK   20  A    between atoms: _47  and  _48
REMARK   21  A    between atoms: _47  and  _50
REMARK   22  A    between atoms: _50  and  _51
REMARK   23  A    between atoms: _54  and  _56
REMARK   24  A    between atoms: _56  and  _57
REMARK   25  A    between atoms: _59  and  _61
REMARK   26  A    between atoms: _61  and  _62
REMARK   27  A    between atoms: _65  and  _67
REMARK   28  A    between atoms: _67  and  _68
REMARK   29  A    between atoms: _67  and  _70
REMARK   30  A    between atoms: _70  and  _71
REMARK   31  A    between atoms: _74  and  _76
REMARK   32  A    between atoms: _76  and  _77
REMARK   33  A    between atoms: _76  and  _79
REMARK   34  A    between atoms: _79  and  _80
REMARK   35  A    between atoms: _83  and  _85
REMARK   36  A    between atoms: _85  and  _86
REMARK   37  A    between atoms: _85  and  _88
REMARK   38  A    between atoms: _88  and  _89
REMARK   39  A    between atoms: _92  and  _94
REMARK   40  A    between atoms: _94  and  _95
REMARK   41  A    between atoms: _94  and  _97
REMARK   42  A    between atoms: _100  and  _102
REMARK   43  A    between atoms: _102  and  _103
REMARK   44  A    between atoms: _102  and  _105
REMARK   45  A    between atoms: _105  and  _106
REMARK   46  A    between atoms: _106  and  _107
REMARK   47  A    between atoms: _107  and  _108
REMARK   48  A    between atoms: _108  and  _109
REMARK   49  A    between atoms: _113  and  _115
REMARK   50  A    between atoms: _115  and  _116
REMARK   51  A    between atoms: _115  and  _118
REMARK   52  A    between atoms: _118  and  _119
REMARK   53  A    between atoms: _119  and  _120
REMARK   54  A    between atoms: _122  and  _124
REMARK   55  A    between atoms: _124  and  _125
REMARK   56  A    between atoms: _124  and  _127
REMARK   57  A    between atoms: _127  and  _128
REMARK   58  A    between atoms: _131  and  _133
REMARK   59  A    between atoms: _133  and  _134
REMARK   60  A    between atoms: _136  and  _138
REMARK   61  A    between atoms: _138  and  _139
REMARK   62  A    between atoms: _141  and  _143
REMARK   63  A    between atoms: _143  and  _144
REMARK   64  A    between atoms: _143  and  _146
REMARK   65  A    between atoms: _146  and  _147
REMARK   66  A    between atoms: _150  and  _152
REMARK   67  A    between atoms: _152  and  _153
REMARK   68  A    between atoms: _155  and  _157
REMARK   69  A    between atoms: _157  and  _158
REMARK   70  A    between atoms: _160  and  _162
REMARK   71  A    between atoms: _162  and  _163
REMARK   72  A    between atoms: _162  and  _165
REMARK   73  A    between atoms: _165  and  _166
REMARK   74  A    between atoms: _172  and  _174
REMARK   75  A    between atoms: _174  and  _175
REMARK   76  A    between atoms: _174  and  _177
REMARK   77  A    between atoms: _177  and  _178
REMARK   78  A    between atoms: _181  and  _183
REMARK   79  A    between atoms: _183  and  _184
REMARK   80  A    between atoms: _183  and  _186
REMARK   81  A    between atoms: _186  and  _187
REMARK   82  A    between atoms: _190  and  _192
REMARK   83  A    between atoms: _192  and  _193
REMARK   84  A    between atoms: _192  and  _195
REMARK   85  A    between atoms: _195  and  _196
REMARK   86  A    between atoms: _200  and  _201
REMARK   87  A    between atoms: _206  and  _208
REMARK   88  A    between atoms: _208  and  _209
REMARK   89  A    between atoms: _208  and  _211
REMARK   90  A    between atoms: _214  and  _216
REMARK   91  A    between atoms: _216  and  _217
REMARK   92  A    between atoms: _216  and  _219
REMARK   93  A    between atoms: _219  and  _220
REMARK   94  A    between atoms: _225  and  _227
REMARK   95  A    between atoms: _227  and  _228
REMARK   96  A    between atoms: _227  and  _230
REMARK   97  A    between atoms: _230  and  _231
REMARK   98  A    between atoms: _234  and  _236
REMARK   99  A    between atoms: _236  and  _237
REMARK  100  A    between atoms: _239  and  _241
REMARK  101  A    between atoms: _241  and  _242
REMARK  102  A    between atoms: _241  and  _244
REMARK  103  A    between atoms: _244  and  _245
REMARK  104  A    between atoms: _245  and  _246
REMARK  105  A    between atoms: _246  and  _247
REMARK  106  A    between atoms: _256  and  _258
REMARK  107  A    between atoms: _258  and  _259
REMARK  108  A    between atoms: _258  and  _261
REMARK  109  A    between atoms: _261  and  _262
REMARK  110  A    between atoms: _267  and  _269
REMARK  111  A    between atoms: _269  and  _270
REMARK  112  A    between atoms: _269  and  _272
REMARK  113  A    between atoms: _272  and  _273
REMARK  114  A    between atoms: _273  and  _274
REMARK  115  A    between atoms: _274  and  _275
REMARK  116  A    between atoms: _284  and  _286
REMARK  117  A    between atoms: _286  and  _287
REMARK  118  A    between atoms: _286  and  _289
REMARK  119  A    between atoms: _289  and  _290
REMARK  120  A    between atoms: _293  and  _295
REMARK  121  A    between atoms: _295  and  _296
REMARK  122  A    between atoms: _295  and  _298
REMARK  123  A    between atoms: _298  and  _299
REMARK  124  A    between atoms: _302  and  _304
REMARK  125  A    between atoms: _304  and  _305
REMARK  126  A    between atoms: _304  and  _307
REMARK  127  A    between atoms: _307  and  _308
REMARK  128  A    between atoms: _311  and  _313
REMARK  129  A    between atoms: _313  and  _314
REMARK  130  A    between atoms: _313  and  _316
REMARK  131  A    between atoms: _316  and  _317
REMARK  132  A    between atoms: _320  and  _322
REMARK  133  A    between atoms: _322  and  _323
REMARK  134  A    between atoms: _322  and  _325
REMARK  135  A    between atoms: _325  and  _326
REMARK  136  A    between atoms: _329  and  _331
REMARK  137  A    between atoms: _331  and  _332
REMARK  138  A    between atoms: _334  and  _336
REMARK  139  A    between atoms: _336  and  _337
REMARK  140  A    between atoms: _340  and  _342
REMARK  141  A    between atoms: _342  and  _343
REMARK  142  A    between atoms: _342  and  _345
REMARK  143  A    between atoms: _345  and  _346
REMARK  144  A    between atoms: _349  and  _351
REMARK  145  A    between atoms: _351  and  _352
REMARK  146  A    between atoms: _351  and  _354
REMARK  147  A    between atoms: _354  and  _355
REMARK  148  A    between atoms: _358  and  _360
REMARK  149  A    between atoms: _360  and  _361
REMARK  150  A    between atoms: _360  and  _363
REMARK  151  A    between atoms: _363  and  _364
REMARK  152  A    between atoms: _367  and  _369
REMARK  153  A    between atoms: _369  and  _370
REMARK  154  A    between atoms: _369  and  _372
REMARK  155  A    between atoms: _375  and  _377
REMARK  156  A    between atoms: _377  and  _378
REMARK  157  A    between atoms: _377  and  _380
REMARK  158  A    between atoms: _380  and  _381
REMARK  159  A    between atoms: _381  and  _382
REMARK  160  A    between atoms: _382  and  _383
REMARK  161  A    between atoms: _383  and  _384
REMARK  162  A    between atoms: _388  and  _390
REMARK  163  A    between atoms: _390  and  _391
REMARK  164  A    between atoms: _390  and  _393
REMARK  165  A    between atoms: _393  and  _394
REMARK  166  A    between atoms: _394  and  _395
REMARK  167  A    between atoms: _397  and  _399
REMARK  168  A    between atoms: _399  and  _400
REMARK  169  A    between atoms: _399  and  _402
REMARK  170  A    between atoms: _402  and  _403
REMARK  171  A    between atoms: _406  and  _408
REMARK  172  A    between atoms: _408  and  _409
REMARK  173  A    between atoms: _411  and  _413
REMARK  174  A    between atoms: _413  and  _414
REMARK  175  A    between atoms: _416  and  _418
REMARK  176  A    between atoms: _418  and  _419
REMARK  177  A    between atoms: _418  and  _421
REMARK  178  A    between atoms: _421  and  _422
REMARK  179  A    between atoms: _425  and  _427
REMARK  180  A    between atoms: _427  and  _428
REMARK  181  A    between atoms: _430  and  _432
REMARK  182  A    between atoms: _432  and  _433
REMARK  183  A    between atoms: _435  and  _437
REMARK  184  A    between atoms: _437  and  _438
REMARK  185  A    between atoms: _437  and  _440
REMARK  186  A    between atoms: _440  and  _441
REMARK  187  A    between atoms: _447  and  _449
REMARK  188  A    between atoms: _449  and  _450
REMARK  189  A    between atoms: _449  and  _452
REMARK  190  A    between atoms: _452  and  _453
REMARK  191  A    between atoms: _456  and  _458
REMARK  192  A    between atoms: _458  and  _459
REMARK  193  A    between atoms: _458  and  _461
REMARK  194  A    between atoms: _464  and  _466
REMARK  195  A    between atoms: _466  and  _467
REMARK  196  A    between atoms: _466  and  _469
REMARK  197  A    between atoms: _469  and  _470
REMARK  198  A    between atoms: _473  and  _475
REMARK  199  A    between atoms: _475  and  _476
REMARK  200  A    between atoms: _479  and  _480
REMARK  201  A    between atoms: _485  and  _487
REMARK  202  A    between atoms: _487  and  _488
REMARK  203  A    between atoms: _487  and  _490
REMARK  204  A    between atoms: _490  and  _491
REMARK  205  A    between atoms: _495  and  _496
REMARK  206  A    between atoms: _501  and  _503
REMARK  207  A    between atoms: _503  and  _504
REMARK  208  A    between atoms: _503  and  _506
REMARK  209  A    between atoms: _509  and  _511
REMARK  210  A    between atoms: _511  and  _512
REMARK  211  A    between atoms: _511  and  _514
REMARK  212  A    between atoms: _514  and  _515
REMARK  213  A    between atoms: _520  and  _522
REMARK  214  A    between atoms: _522  and  _523
REMARK  215  A    between atoms: _522  and  _525
REMARK  216  A    between atoms: _525  and  _526
REMARK  217  A    between atoms: _529  and  _531
REMARK  218  A    between atoms: _531  and  _532
REMARK  219  A    between atoms: _531  and  _534
REMARK  220  A    between atoms: _534  and  _535
REMARK  221  A    between atoms: _538  and  _540
REMARK  222  A    between atoms: _540  and  _541
REMARK  223  A    between atoms: _543  and  _545
REMARK  224  A    between atoms: _545  and  _546
REMARK  225  A    between atoms: _545  and  _548
REMARK  226  A    between atoms: _548  and  _549
REMARK  227  A    between atoms: _549  and  _550
REMARK  228  A    between atoms: _550  and  _551
REMARK  229  A    between atoms: _560  and  _562
REMARK  230  A    between atoms: _562  and  _563
REMARK  231  A    between atoms: _562  and  _565
REMARK  232  A    between atoms: _565  and  _566
REMARK                            x       y       z     vdW  Elec       q    Type
REMARK                         _______ _______ _______ _____ _____    ______ ____
ROOT
ATOM      1  O   HOH     1      25.863  26.026  16.143  0.00  0.00    +0.000 OA
ENDROOT
TORSDOF 0
REMARK  Name = ../refined-set-2016/4zls/4zls_pocket.pdb
REMARK  232 active torsions:
REMARK  status: ('A' for Active; 'I' for Inactive)
REMARK    1  A    between atoms: _1  and  _3
REMARK    2  A    between atoms: _3  and  _4
REMARK    3  A    between atoms: _3  and  _6
REMARK    4  A    between atoms: _6  and  _7
REMARK    5  A    between atoms: _7  and  _8
REMARK    6  A    between atoms: _8  and  _9
REMARK    7  A    between atoms: _18  and  _20
REMARK    8  A    between atoms: _20  and  _21
REMARK    9  A    between atoms: _20  and  _23
REMARK   10  A    between atoms: _23  and  _24
REMARK   11  A    between atoms: _27  and  _29
REMARK   12  A    between atoms: _29  and  _30
REMARK   13  A    between atoms: _29  and  _32
REMARK   14  A    between atoms: _32  and  _33
REMARK   15  A    between atoms: _36  and  _38
REMARK   16  A    between atoms: _38  and  _39
REMARK   17  A    between atoms: _38  and  _41
REMARK   18  A    between atoms: _41  and  _42
REMARK   19  A    between atoms: _45  and  _47
REMARK   20  A    between atoms: _47  and  _48
REMARK   21  A    between atoms: _47  and  _50
REMARK   22  A    between atoms: _50  and  _51
REMARK   23  A    between atoms: _54  and  _56
REMARK   24  A    between atoms: _56  and  _57
REMARK   25  A    between atoms: _59  and  _61
REMARK   26  A    between atoms: _61  and  _62
REMARK   27  A    between atoms: _65  and  _67
REMARK   28  A    between atoms: _67  and  _68
REMARK   29  A    between atoms: _67  and  _70
REMARK   30  A    between atoms: _70  and  _71
REMARK   31  A    between atoms: _74  and  _76
REMARK   32  A    between atoms: _76  and  _77
REMARK   33  A    between atoms: _76  and  _79
REMARK   34  A    between atoms: _79  and  _80
REMARK   35  A    between atoms: _83  and  _85
REMARK   36  A    between atoms: _85  and  _86
REMARK   37  A    between atoms: _85  and  _88
REMARK   38  A    between atoms: _88  and  _89
REMARK   39  A    between atoms: _92  and  _94
REMARK   40  A    between atoms: _94  and  _95
REMARK   41  A    between atoms: _94  and  _97
REMARK   42  A    between atoms: _100  and  _102
REMARK   43  A    between atoms: _102  and  _103
REMARK   44  A    between atoms: _102  and  _105
REMARK   45  A    between atoms: _105  and  _106
REMARK   46  A    between atoms: _106  and  _107
REMARK   47  A    between atoms: _107  and  _108
REMARK   48  A    between atoms: _108  and  _109
REMARK   49  A    between atoms: _113  and  _115
REMARK   50  A    between atoms: _115  and  _116
REMARK   51  A    between atoms: _115  and  _118
REMARK   52  A    between atoms: _118  and  _119
REMARK   53  A    between atoms: _119  and  _120
REMARK   54  A    between atoms: _122  and  _124
REMARK   55  A    between atoms: _124  and  _125
REMARK   56  A    between atoms: _124  and  _127
REMARK   57  A    between atoms: _127  and  _128
REMARK   58  A    between atoms: _131  and  _133
REMARK   59  A    between atoms: _133  and  _134
REMARK   60  A    between atoms: _136  and  _138
REMARK   61  A    between atoms: _138  and  _139
REMARK   62  A    between atoms: _141  and  _143
REMARK   63  A    between atoms: _143  and  _144
REMARK   64  A    between atoms: _143  and  _146
REMARK   65  A    between atoms: _146  and  _147
REMARK   66  A    between atoms: _150  and  _152
REMARK   67  A    between atoms: _152  and  _153
REMARK   68  A    between atoms: _155  and  _157
REMARK   69  A    between atoms: _157  and  _158
REMARK   70  A    between atoms: _160  and  _162
REMARK   71  A    between atoms: _162  and  _163
REMARK   72  A    between atoms: _162  and  _165
REMARK   73  A    between atoms: _165  and  _166
REMARK   74  A    between atoms: _172  and  _174
REMARK   75  A    between atoms: _174  and  _175
REMARK   76  A    between atoms: _174  and  _177
REMARK   77  A    between atoms: _177  and  _178
REMARK   78  A    between atoms: _181  and  _183
REMARK   79  A    between atoms: _183  and  _184
REMARK   80  A    between atoms: _183  and  _186
REMARK   81  A    between atoms: _186  and  _187
REMARK   82  A    between atoms: _190  and  _192
REMARK   83  A    between atoms: _192  and  _193
REMARK   84  A    between atoms: _192  and  _195
REMARK   85  A    between atoms: _195  and  _196
REMARK   86  A    between atoms: _200  and  _201
REMARK   87  A    between atoms: _206  and  _208
REMARK   88  A    between atoms: _208  and  _209
REMARK   89  A    between atoms: _208  and  _211
REMARK   90  A    between atoms: _214  and  _216
REMARK   91  A    between atoms: _216  and  _217
REMARK   92  A    between atoms: _216  and  _219
REMARK   93  A    between atoms: _219  and  _220
REMARK   94  A    between atoms: _225  and  _227
REMARK   95  A    between atoms: _227  and  _228
REMARK   96  A    between atoms: _227  and  _230
REMARK   97  A    between atoms: _230  and  _231
REMARK   98  A    between atoms: _234  and  _236
REMARK   99  A    between atoms: _236  and  _237
REMARK  100  A    between atoms: _239  and  _241
REMARK  101  A    between atoms: _241  and  _242
REMARK  102  A    between atoms: _241  and  _244
REMARK  103  A    between atoms: _244  and  _245
REMARK  104  A    between atoms: _245  and  _246
REMARK  105  A    between atoms: _246  and  _247
REMARK  106  A    between atoms: _256  and  _258
REMARK  107  A    between atoms: _258  and  _259
REMARK  108  A    between atoms: _258  and  _261
REMARK  109  A    between atoms: _261  and  _262
REMARK  110  A    between atoms: _267  and  _269
REMARK  111  A    between atoms: _269  and  _270
REMARK  112  A    between atoms: _269  and  _272
REMARK  113  A    between atoms: _272  and  _273
REMARK  114  A    between atoms: _273  and  _274
REMARK  115  A    between atoms: _274  and  _275
REMARK  116  A    between atoms: _284  and  _286
REMARK  117  A    between atoms: _286  and  _287
REMARK  118  A    between atoms: _286  and  _289
REMARK  119  A    between atoms: _289  and  _290
REMARK  120  A    between atoms: _293  and  _295
REMARK  121  A    between atoms: _295  and  _296
REMARK  122  A    between atoms: _295  and  _298
REMARK  123  A    between atoms: _298  and  _299
REMARK  124  A    between atoms: _302  and  _304
REMARK  125  A    between atoms: _304  and  _305
REMARK  126  A    between atoms: _304  and  _307
REMARK  127  A    between atoms: _307  and  _308
REMARK  128  A    between atoms: _311  and  _313
REMARK  129  A    between atoms: _313  and  _314
REMARK  130  A    between atoms: _313  and  _316
REMARK  131  A    between atoms: _316  and  _317
REMARK  132  A    between atoms: _320  and  _322
REMARK  133  A    between atoms: _322  and  _323
REMARK  134  A    between atoms: _322  and  _325
REMARK  135  A    between atoms: _325  and  _326
REMARK  136  A    between atoms: _329  and  _331
REMARK  137  A    between atoms: _331  and  _332
REMARK  138  A    between atoms: _334  and  _336
REMARK  139  A    between atoms: _336  and  _337
REMARK  140  A    between atoms: _340  and  _342
REMARK  141  A    between atoms: _342  and  _343
REMARK  142  A    between atoms: _342  and  _345
REMARK  143  A    between atoms: _345  and  _346
REMARK  144  A    between atoms: _349  and  _351
REMARK  145  A    between atoms: _351  and  _352
REMARK  146  A    between atoms: _351  and  _354
REMARK  147  A    between atoms: _354  and  _355
REMARK  148  A    between atoms: _358  and  _360
REMARK  149  A    between atoms: _360  and  _361
REMARK  150  A    between atoms: _360  and  _363
REMARK  151  A    between atoms: _363  and  _364
REMARK  152  A    between atoms: _367  and  _369
REMARK  153  A    between atoms: _369  and  _370
REMARK  154  A    between atoms: _369  and  _372
REMARK  155  A    between atoms: _375  and  _377
REMARK  156  A    between atoms: _377  and  _378
REMARK  157  A    between atoms: _377  and  _380
REMARK  158  A    between atoms: _380  and  _381
REMARK  159  A    between atoms: _381  and  _382
REMARK  160  A    between atoms: _382  and  _383
REMARK  161  A    between atoms: _383  and  _384
REMARK  162  A    between atoms: _388  and  _390
REMARK  163  A    between atoms: _390  and  _391
REMARK  164  A    between atoms: _390  and  _393
REMARK  165  A    between atoms: _393  and  _394
REMARK  166  A    between atoms: _394  and  _395
REMARK  167  A    between atoms: _397  and  _399
REMARK  168  A    between atoms: _399  and  _400
REMARK  169  A    between atoms: _399  and  _402
REMARK  170  A    between atoms: _402  and  _403
REMARK  171  A    between atoms: _406  and  _408
REMARK  172  A    between atoms: _408  and  _409
REMARK  173  A    between atoms: _411  and  _413
REMARK  174  A    between atoms: _413  and  _414
REMARK  175  A    between atoms: _416  and  _418
REMARK  176  A    between atoms: _418  and  _419
REMARK  177  A    between atoms: _418  and  _421
REMARK  178  A    between atoms: _421  and  _422
REMARK  179  A    between atoms: _425  and  _427
REMARK  180  A    between atoms: _427  and  _428
REMARK  181  A    between atoms: _430  and  _432
REMARK  182  A    between atoms: _432  and  _433
REMARK  183  A    between atoms: _435  and  _437
REMARK  184  A    between atoms: _437  and  _438
REMARK  185  A    between atoms: _437  and  _440
REMARK  186  A    between atoms: _440  and  _441
REMARK  187  A    between atoms: _447  and  _449
REMARK  188  A    between atoms: _449  and  _450
REMARK  189  A    between atoms: _449  and  _452
REMARK  190  A    between atoms: _452  and  _453
REMARK  191  A    between atoms: _456  and  _458
REMARK  192  A    between atoms: _458  and  _459
REMARK  193  A    between atoms: _458  and  _461
REMARK  194  A    between atoms: _464  and  _466
REMARK  195  A    between atoms: _466  and  _467
REMARK  196  A    between atoms: _466  and  _469
REMARK  197  A    between atoms: _469  and  _470
REMARK  198  A    between atoms: _473  and  _475
REMARK  199  A    between atoms: _475  and  _476
REMARK  200  A    between atoms: _479  and  _480
REMARK  201  A    between atoms: _485  and  _487
REMARK  202  A    between atoms: _487  and  _488
REMARK  203  A    between atoms: _487  and  _490
REMARK  204  A    between atoms: _490  and  _491
REMARK  205  A    between atoms: _495  and  _496
REMARK  206  A    between atoms: _501  and  _503
REMARK  207  A    between atoms: _503  and  _504
REMARK  208  A    between atoms: _503  and  _506
REMARK  209  A    between atoms: _509  and  _511
REMARK  210  A    between atoms: _511  and  _512
REMARK  211  A    between atoms: _511  and  _514
REMARK  212  A    between atoms: _514  and  _515
REMARK  213  A    between atoms: _520  and  _522
REMARK  214  A    between atoms: _522  and  _523
REMARK  215  A    between atoms: _522  and  _525
REMARK  216  A    between atoms: _525  and  _526
REMARK  217  A    between atoms: _529  and  _531
REMARK  218  A    between atoms: _531  and  _532
REMARK  219  A    between atoms: _531  and  _534
REMARK  220  A    between atoms: _534  and  _535
REMARK  221  A    between atoms: _538  and  _540
REMARK  222  A    between atoms: _540  and  _541
REMARK  223  A    between atoms: _543  and  _545
REMARK  224  A    between atoms: _545  and  _546
REMARK  225  A    between atoms: _545  and  _548
REMARK  226  A    between atoms: _548  and  _549
REMARK  227  A    between atoms: _549  and  _550
REMARK  228  A    between atoms: _550  and  _551
REMARK  229  A    between atoms: _560  and  _562
REMARK  230  A    between atoms: _562  and  _563
REMARK  231  A    between atoms: _562  and  _565
REMARK  232  A    between atoms: _565  and  _566
REMARK                            x       y       z     vdW  Elec       q    Type
REMARK                         _______ _______ _______ _____ _____    ______ ____
ROOT
ATOM      1  O   HOH     1       6.743  22.869  11.303  0.00  0.00    +0.000 OA
ENDROOT
TORSDOF 0
REMARK  Name = ../refined-set-2016/4zls/4zls_pocket.pdb
REMARK  232 active torsions:
REMARK  status: ('A' for Active; 'I' for Inactive)
REMARK    1  A    between atoms: _1  and  _3
REMARK    2  A    between atoms: _3  and  _4
REMARK    3  A    between atoms: _3  and  _6
REMARK    4  A    between atoms: _6  and  _7
REMARK    5  A    between atoms: _7  and  _8
REMARK    6  A    between atoms: _8  and  _9
REMARK    7  A    between atoms: _18  and  _20
REMARK    8  A    between atoms: _20  and  _21
REMARK    9  A    between atoms: _20  and  _23
REMARK   10  A    between atoms: _23  and  _24
REMARK   11  A    between atoms: _27  and  _29
REMARK   12  A    between atoms: _29  and  _30
REMARK   13  A    between atoms: _29  and  _32
REMARK   14  A    between atoms: _32  and  _33
REMARK   15  A    between atoms: _36  and  _38
REMARK   16  A    between atoms: _38  and  _39
REMARK   17  A    between atoms: _38  and  _41
REMARK   18  A    between atoms: _41  and  _42
REMARK   19  A    between atoms: _45  and  _47
REMARK   20  A    between atoms: _47  and  _48
REMARK   21  A    between atoms: _47  and  _50
REMARK   22  A    between atoms: _50  and  _51
REMARK   23  A    between atoms: _54  and  _56
REMARK   24  A    between atoms: _56  and  _57
REMARK   25  A    between atoms: _59  and  _61
REMARK   26  A    between atoms: _61  and  _62
REMARK   27  A    between atoms: _65  and  _67
REMARK   28  A    between atoms: _67  and  _68
REMARK   29  A    between atoms: _67  and  _70
REMARK   30  A    between atoms: _70  and  _71
REMARK   31  A    between atoms: _74  and  _76
REMARK   32  A    between atoms: _76  and  _77
REMARK   33  A    between atoms: _76  and  _79
REMARK   34  A    between atoms: _79  and  _80
REMARK   35  A    between atoms: _83  and  _85
REMARK   36  A    between atoms: _85  and  _86
REMARK   37  A    between atoms: _85  and  _88
REMARK   38  A    between atoms: _88  and  _89
REMARK   39  A    between atoms: _92  and  _94
REMARK   40  A    between atoms: _94  and  _95
REMARK   41  A    between atoms: _94  and  _97
REMARK   42  A    between atoms: _100  and  _102
REMARK   43  A    between atoms: _102  and  _103
REMARK   44  A    between atoms: _102  and  _105
REMARK   45  A    between atoms: _105  and  _106
REMARK   46  A    between atoms: _106  and  _107
REMARK   47  A    between atoms: _107  and  _108
REMARK   48  A    between atoms: _108  and  _109
REMARK   49  A    between atoms: _113  and  _115
REMARK   50  A    between atoms: _115  and  _116
REMARK   51  A    between atoms: _115  and  _118
REMARK   52  A    between atoms: _118  and  _119
REMARK   53  A    between atoms: _119  and  _120
REMARK   54  A    between atoms: _122  and  _124
REMARK   55  A    between atoms: _124  and  _125
REMARK   56  A    between atoms: _124  and  _127
REMARK   57  A    between atoms: _127  and  _128
REMARK   58  A    between atoms: _131  and  _133
REMARK   59  A    between atoms: _133  and  _134
REMARK   60  A    between atoms: _136  and  _138
REMARK   61  A    between atoms: _138  and  _139
REMARK   62  A    between atoms: _141  and  _143
REMARK   63  A    between atoms: _143  and  _144
REMARK   64  A    between atoms: _143  and  _146
REMARK   65  A    between atoms: _146  and  _147
REMARK   66  A    between atoms: _150  and  _152
REMARK   67  A    between atoms: _152  and  _153
REMARK   68  A    between atoms: _155  and  _157
REMARK   69  A    between atoms: _157  and  _158
REMARK   70  A    between atoms: _160  and  _162
REMARK   71  A    between atoms: _162  and  _163
REMARK   72  A    between atoms: _162  and  _165
REMARK   73  A    between atoms: _165  and  _166
REMARK   74  A    between atoms: _172  and  _174
REMARK   75  A    between atoms: _174  and  _175
REMARK   76  A    between atoms: _174  and  _177
REMARK   77  A    between atoms: _177  and  _178
REMARK   78  A    between atoms: _181  and  _183
REMARK   79  A    between atoms: _183  and  _184
REMARK   80  A    between atoms: _183  and  _186
REMARK   81  A    between atoms: _186  and  _187
REMARK   82  A    between atoms: _190  and  _192
REMARK   83  A    between atoms: _192  and  _193
REMARK   84  A    between atoms: _192  and  _195
REMARK   85  A    between atoms: _195  and  _196
REMARK   86  A    between atoms: _200  and  _201
REMARK   87  A    between atoms: _206  and  _208
REMARK   88  A    between atoms: _208  and  _209
REMARK   89  A    between atoms: _208  and  _211
REMARK   90  A    between atoms: _214  and  _216
REMARK   91  A    between atoms: _216  and  _217
REMARK   92  A    between atoms: _216  and  _219
REMARK   93  A    between atoms: _219  and  _220
REMARK   94  A    between atoms: _225  and  _227
REMARK   95  A    between atoms: _227  and  _228
REMARK   96  A    between atoms: _227  and  _230
REMARK   97  A    between atoms: _230  and  _231
REMARK   98  A    between atoms: _234  and  _236
REMARK   99  A    between atoms: _236  and  _237
REMARK  100  A    between atoms: _239  and  _241
REMARK  101  A    between atoms: _241  and  _242
REMARK  102  A    between atoms: _241  and  _244
REMARK  103  A    between atoms: _244  and  _245
REMARK  104  A    between atoms: _245  and  _246
REMARK  105  A    between atoms: _246  and  _247
REMARK  106  A    between atoms: _256  and  _258
REMARK  107  A    between atoms: _258  and  _259
REMARK  108  A    between atoms: _258  and  _261
REMARK  109  A    between atoms: _261  and  _262
REMARK  110  A    between atoms: _267  and  _269
REMARK  111  A    between atoms: _269  and  _270
REMARK  112  A    between atoms: _269  and  _272
REMARK  113  A    between atoms: _272  and  _273
REMARK  114  A    between atoms: _273  and  _274
REMARK  115  A    between atoms: _274  and  _275
REMARK  116  A    between atoms: _284  and  _286
REMARK  117  A    between atoms: _286  and  _287
REMARK  118  A    between atoms: _286  and  _289
REMARK  119  A    between atoms: _289  and  _290
REMARK  120  A    between atoms: _293  and  _295
REMARK  121  A    between atoms: _295  and  _296
REMARK  122  A    between atoms: _295  and  _298
REMARK  123  A    between atoms: _298  and  _299
REMARK  124  A    between atoms: _302  and  _304
REMARK  125  A    between atoms: _304  and  _305
REMARK  126  A    between atoms: _304  and  _307
REMARK  127  A    between atoms: _307  and  _308
REMARK  128  A    between atoms: _311  and  _313
REMARK  129  A    between atoms: _313  and  _314
REMARK  130  A    between atoms: _313  and  _316
REMARK  131  A    between atoms: _316  and  _317
REMARK  132  A    between atoms: _320  and  _322
REMARK  133  A    between atoms: _322  and  _323
REMARK  134  A    between atoms: _322  and  _325
REMARK  135  A    between atoms: _325  and  _326
REMARK  136  A    between atoms: _329  and  _331
REMARK  137  A    between atoms: _331  and  _332
REMARK  138  A    between atoms: _334  and  _336
REMARK  139  A    between atoms: _336  and  _337
REMARK  140  A    between atoms: _340  and  _342
REMARK  141  A    between atoms: _342  and  _343
REMARK  142  A    between atoms: _342  and  _345
REMARK  143  A    between atoms: _345  and  _346
REMARK  144  A    between atoms: _349  and  _351
REMARK  145  A    between atoms: _351  and  _352
REMARK  146  A    between atoms: _351  and  _354
REMARK  147  A    between atoms: _354  and  _355
REMARK  148  A    between atoms: _358  and  _360
REMARK  149  A    between atoms: _360  and  _361
REMARK  150  A    between atoms: _360  and  _363
REMARK  151  A    between atoms: _363  and  _364
REMARK  152  A    between atoms: _367  and  _369
REMARK  153  A    between atoms: _369  and  _370
REMARK  154  A    between atoms: _369  and  _372
REMARK  155  A    between atoms: _375  and  _377
REMARK  156  A    between atoms: _377  and  _378
REMARK  157  A    between atoms: _377  and  _380
REMARK  158  A    between atoms: _380  and  _381
REMARK  159  A    between atoms: _381  and  _382
REMARK  160  A    between atoms: _382  and  _383
REMARK  161  A    between atoms: _383  and  _384
REMARK  162  A    between atoms: _388  and  _390
REMARK  163  A    between atoms: _390  and  _391
REMARK  164  A    between atoms: _390  and  _393
REMARK  165  A    between atoms: _393  and  _394
REMARK  166  A    between atoms: _394  and  _395
REMARK  167  A    between atoms: _397  and  _399
REMARK  168  A    between atoms: _399  and  _400
REMARK  169  A    between atoms: _399  and  _402
REMARK  170  A    between atoms: _402  and  _403
REMARK  171  A    between atoms: _406  and  _408
REMARK  172  A    between atoms: _408  and  _409
REMARK  173  A    between atoms: _411  and  _413
REMARK  174  A    between atoms: _413  and  _414
REMARK  175  A    between atoms: _416  and  _418
REMARK  176  A    between atoms: _418  and  _419
REMARK  177  A    between atoms: _418  and  _421
REMARK  178  A    between atoms: _421  and  _422
REMARK  179  A    between atoms: _425  and  _427
REMARK  180  A    between atoms: _427  and  _428
REMARK  181  A    between atoms: _430  and  _432
REMARK  182  A    between atoms: _432  and  _433
REMARK  183  A    between atoms: _435  and  _437
REMARK  184  A    between atoms: _437  and  _438
REMARK  185  A    between atoms: _437  and  _440
REMARK  186  A    between atoms: _440  and  _441
REMARK  187  A    between atoms: _447  and  _449
REMARK  188  A    between atoms: _449  and  _450
REMARK  189  A    between atoms: _449  and  _452
REMARK  190  A    between atoms: _452  and  _453
REMARK  191  A    between atoms: _456  and  _458
REMARK  192  A    between atoms: _458  and  _459
REMARK  193  A    between atoms: _458  and  _461
REMARK  194  A    between atoms: _464  and  _466
REMARK  195  A    between atoms: _466  and  _467
REMARK  196  A    between atoms: _466  and  _469
REMARK  197  A    between atoms: _469  and  _470
REMARK  198  A    between atoms: _473  and  _475
REMARK  199  A    between atoms: _475  and  _476
REMARK  200  A    between atoms: _479  and  _480
REMARK  201  A    between atoms: _485  and  _487
REMARK  202  A    between atoms: _487  and  _488
REMARK  203  A    between atoms: _487  and  _490
REMARK  204  A    between atoms: _490  and  _491
REMARK  205  A    between atoms: _495  and  _496
REMARK  206  A    between atoms: _501  and  _503
REMARK  207  A    between atoms: _503  and  _504
REMARK  208  A    between atoms: _503  and  _506
REMARK  209  A    between atoms: _509  and  _511
REMARK  210  A    between atoms: _511  and  _512
REMARK  211  A    between atoms: _511  and  _514
REMARK  212  A    between atoms: _514  and  _515
REMARK  213  A    between atoms: _520  and  _522
REMARK  214  A    between atoms: _522  and  _523
REMARK  215  A    between atoms: _522  and  _525
REMARK  216  A    between atoms: _525  and  _526
REMARK  217  A    between atoms: _529  and  _531
REMARK  218  A    between atoms: _531  and  _532
REMARK  219  A    between atoms: _531  and  _534
REMARK  220  A    between atoms: _534  and  _535
REMARK  221  A    between atoms: _538  and  _540
REMARK  222  A    between atoms: _540  and  _541
REMARK  223  A    between atoms: _543  and  _545
REMARK  224  A    between atoms: _545  and  _546
REMARK  225  A    between atoms: _545  and  _548
REMARK  226  A    between atoms: _548  and  _549
REMARK  227  A    between atoms: _549  and  _550
REMARK  228  A    between atoms: _550  and  _551
REMARK  229  A    between atoms: _560  and  _562
REMARK  230  A    between atoms: _562  and  _563
REMARK  231  A    between atoms: _562  and  _565
REMARK  232  A    between atoms: _565  and  _566
REMARK                            x       y       z     vdW  Elec       q    Type
REMARK                         _______ _______ _______ _____ _____    ______ ____
ROOT
ATOM      1  O   HOH     1       6.846  14.541  20.131  0.00  0.00    +0.000 OA
ENDROOT
TORSDOF 0
REMARK  Name = ../refined-set-2016/4zls/4zls_pocket.pdb
REMARK  232 active torsions:
REMARK  status: ('A' for Active; 'I' for Inactive)
REMARK    1  A    between atoms: _1  and  _3
REMARK    2  A    between atoms: _3  and  _4
REMARK    3  A    between atoms: _3  and  _6
REMARK    4  A    between atoms: _6  and  _7
REMARK    5  A    between atoms: _7  and  _8
REMARK    6  A    between atoms: _8  and  _9
REMARK    7  A    between atoms: _18  and  _20
REMARK    8  A    between atoms: _20  and  _21
REMARK    9  A    between atoms: _20  and  _23
REMARK   10  A    between atoms: _23  and  _24
REMARK   11  A    between atoms: _27  and  _29
REMARK   12  A    between atoms: _29  and  _30
REMARK   13  A    between atoms: _29  and  _32
REMARK   14  A    between atoms: _32  and  _33
REMARK   15  A    between atoms: _36  and  _38
REMARK   16  A    between atoms: _38  and  _39
REMARK   17  A    between atoms: _38  and  _41
REMARK   18  A    between atoms: _41  and  _42
REMARK   19  A    between atoms: _45  and  _47
REMARK   20  A    between atoms: _47  and  _48
REMARK   21  A    between atoms: _47  and  _50
REMARK   22  A    between atoms: _50  and  _51
REMARK   23  A    between atoms: _54  and  _56
REMARK   24  A    between atoms: _56  and  _57
REMARK   25  A    between atoms: _59  and  _61
REMARK   26  A    between atoms: _61  and  _62
REMARK   27  A    between atoms: _65  and  _67
REMARK   28  A    between atoms: _67  and  _68
REMARK   29  A    between atoms: _67  and  _70
REMARK   30  A    between atoms: _70  and  _71
REMARK   31  A    between atoms: _74  and  _76
REMARK   32  A    between atoms: _76  and  _77
REMARK   33  A    between atoms: _76  and  _79
REMARK   34  A    between atoms: _79  and  _80
REMARK   35  A    between atoms: _83  and  _85
REMARK   36  A    between atoms: _85  and  _86
REMARK   37  A    between atoms: _85  and  _88
REMARK   38  A    between atoms: _88  and  _89
REMARK   39  A    between atoms: _92  and  _94
REMARK   40  A    between atoms: _94  and  _95
REMARK   41  A    between atoms: _94  and  _97
REMARK   42  A    between atoms: _100  and  _102
REMARK   43  A    between atoms: _102  and  _103
REMARK   44  A    between atoms: _102  and  _105
REMARK   45  A    between atoms: _105  and  _106
REMARK   46  A    between atoms: _106  and  _107
REMARK   47  A    between atoms: _107  and  _108
REMARK   48  A    between atoms: _108  and  _109
REMARK   49  A    between atoms: _113  and  _115
REMARK   50  A    between atoms: _115  and  _116
REMARK   51  A    between atoms: _115  and  _118
REMARK   52  A    between atoms: _118  and  _119
REMARK   53  A    between atoms: _119  and  _120
REMARK   54  A    between atoms: _122  and  _124
REMARK   55  A    between atoms: _124  and  _125
REMARK   56  A    between atoms: _124  and  _127
REMARK   57  A    between atoms: _127  and  _128
REMARK   58  A    between atoms: _131  and  _133
REMARK   59  A    between atoms: _133  and  _134
REMARK   60  A    between atoms: _136  and  _138
REMARK   61  A    between atoms: _138  and  _139
REMARK   62  A    between atoms: _141  and  _143
REMARK   63  A    between atoms: _143  and  _144
REMARK   64  A    between atoms: _143  and  _146
REMARK   65  A    between atoms: _146  and  _147
REMARK   66  A    between atoms: _150  and  _152
REMARK   67  A    between atoms: _152  and  _153
REMARK   68  A    between atoms: _155  and  _157
REMARK   69  A    between atoms: _157  and  _158
REMARK   70  A    between atoms: _160  and  _162
REMARK   71  A    between atoms: _162  and  _163
REMARK   72  A    between atoms: _162  and  _165
REMARK   73  A    between atoms: _165  and  _166
REMARK   74  A    between atoms: _172  and  _174
REMARK   75  A    between atoms: _174  and  _175
REMARK   76  A    between atoms: _174  and  _177
REMARK   77  A    between atoms: _177  and  _178
REMARK   78  A    between atoms: _181  and  _183
REMARK   79  A    between atoms: _183  and  _184
REMARK   80  A    between atoms: _183  and  _186
REMARK   81  A    between atoms: _186  and  _187
REMARK   82  A    between atoms: _190  and  _192
REMARK   83  A    between atoms: _192  and  _193
REMARK   84  A    between atoms: _192  and  _195
REMARK   85  A    between atoms: _195  and  _196
REMARK   86  A    between atoms: _200  and  _201
REMARK   87  A    between atoms: _206  and  _208
REMARK   88  A    between atoms: _208  and  _209
REMARK   89  A    between atoms: _208  and  _211
REMARK   90  A    between atoms: _214  and  _216
REMARK   91  A    between atoms: _216  and  _217
REMARK   92  A    between atoms: _216  and  _219
REMARK   93  A    between atoms: _219  and  _220
REMARK   94  A    between atoms: _225  and  _227
REMARK   95  A    between atoms: _227  and  _228
REMARK   96  A    between atoms: _227  and  _230
REMARK   97  A    between atoms: _230  and  _231
REMARK   98  A    between atoms: _234  and  _236
REMARK   99  A    between atoms: _236  and  _237
REMARK  100  A    between atoms: _239  and  _241
REMARK  101  A    between atoms: _241  and  _242
REMARK  102  A    between atoms: _241  and  _244
REMARK  103  A    between atoms: _244  and  _245
REMARK  104  A    between atoms: _245  and  _246
REMARK  105  A    between atoms: _246  and  _247
REMARK  106  A    between atoms: _256  and  _258
REMARK  107  A    between atoms: _258  and  _259
REMARK  108  A    between atoms: _258  and  _261
REMARK  109  A    between atoms: _261  and  _262
REMARK  110  A    between atoms: _267  and  _269
REMARK  111  A    between atoms: _269  and  _270
REMARK  112  A    between atoms: _269  and  _272
REMARK  113  A    between atoms: _272  and  _273
REMARK  114  A    between atoms: _273  and  _274
REMARK  115  A    between atoms: _274  and  _275
REMARK  116  A    between atoms: _284  and  _286
REMARK  117  A    between atoms: _286  and  _287
REMARK  118  A    between atoms: _286  and  _289
REMARK  119  A    between atoms: _289  and  _290
REMARK  120  A    between atoms: _293  and  _295
REMARK  121  A    between atoms: _295  and  _296
REMARK  122  A    between atoms: _295  and  _298
REMARK  123  A    between atoms: _298  and  _299
REMARK  124  A    between atoms: _302  and  _304
REMARK  125  A    between atoms: _304  and  _305
REMARK  126  A    between atoms: _304  and  _307
REMARK  127  A    between atoms: _307  and  _308
REMARK  128  A    between atoms: _311  and  _313
REMARK  129  A    between atoms: _313  and  _314
REMARK  130  A    between atoms: _313  and  _316
REMARK  131  A    between atoms: _316  and  _317
REMARK  132  A    between atoms: _320  and  _322
REMARK  133  A    between atoms: _322  and  _323
REMARK  134  A    between atoms: _322  and  _325
REMARK  135  A    between atoms: _325  and  _326
REMARK  136  A    between atoms: _329  and  _331
REMARK  137  A    between atoms: _331  and  _332
REMARK  138  A    between atoms: _334  and  _336
REMARK  139  A    between atoms: _336  and  _337
REMARK  140  A    between atoms: _340  and  _342
REMARK  141  A    between atoms: _342  and  _343
REMARK  142  A    between atoms: _342  and  _345
REMARK  143  A    between atoms: _345  and  _346
REMARK  144  A    between atoms: _349  and  _351
REMARK  145  A    between atoms: _351  and  _352
REMARK  146  A    between atoms: _351  and  _354
REMARK  147  A    between atoms: _354  and  _355
REMARK  148  A    between atoms: _358  and  _360
REMARK  149  A    between atoms: _360  and  _361
REMARK  150  A    between atoms: _360  and  _363
REMARK  151  A    between atoms: _363  and  _364
REMARK  152  A    between atoms: _367  and  _369
REMARK  153  A    between atoms: _369  and  _370
REMARK  154  A    between atoms: _369  and  _372
REMARK  155  A    between atoms: _375  and  _377
REMARK  156  A    between atoms: _377  and  _378
REMARK  157  A    between atoms: _377  and  _380
REMARK  158  A    between atoms: _380  and  _381
REMARK  159  A    between atoms: _381  and  _382
REMARK  160  A    between atoms: _382  and  _383
REMARK  161  A    between atoms: _383  and  _384
REMARK  162  A    between atoms: _388  and  _390
REMARK  163  A    between atoms: _390  and  _391
REMARK  164  A    between atoms: _390  and  _393
REMARK  165  A    between atoms: _393  and  _394
REMARK  166  A    between atoms: _394  and  _395
REMARK  167  A    between atoms: _397  and  _399
REMARK  168  A    between atoms: _399  and  _400
REMARK  169  A    between atoms: _399  and  _402
REMARK  170  A    between atoms: _402  and  _403
REMARK  171  A    between atoms: _406  and  _408
REMARK  172  A    between atoms: _408  and  _409
REMARK  173  A    between atoms: _411  and  _413
REMARK  174  A    between atoms: _413  and  _414
REMARK  175  A    between atoms: _416  and  _418
REMARK  176  A    between atoms: _418  and  _419
REMARK  177  A    between atoms: _418  and  _421
REMARK  178  A    between atoms: _421  and  _422
REMARK  179  A    between atoms: _425  and  _427
REMARK  180  A    between atoms: _427  and  _428
REMARK  181  A    between atoms: _430  and  _432
REMARK  182  A    between atoms: _432  and  _433
REMARK  183  A    between atoms: _435  and  _437
REMARK  184  A    between atoms: _437  and  _438
REMARK  185  A    between atoms: _437  and  _440
REMARK  186  A    between atoms: _440  and  _441
REMARK  187  A    between atoms: _447  and  _449
REMARK  188  A    between atoms: _449  and  _450
REMARK  189  A    between atoms: _449  and  _452
REMARK  190  A    between atoms: _452  and  _453
REMARK  191  A    between atoms: _456  and  _458
REMARK  192  A    between atoms: _458  and  _459
REMARK  193  A    between atoms: _458  and  _461
REMARK  194  A    between atoms: _464  and  _466
REMARK  195  A    between atoms: _466  and  _467
REMARK  196  A    between atoms: _466  and  _469
REMARK  197  A    between atoms: _469  and  _470
REMARK  198  A    between atoms: _473  and  _475
REMARK  199  A    between atoms: _475  and  _476
REMARK  200  A    between atoms: _479  and  _480
REMARK  201  A    between atoms: _485  and  _487
REMARK  202  A    between atoms: _487  and  _488
REMARK  203  A    between atoms: _487  and  _490
REMARK  204  A    between atoms: _490  and  _491
REMARK  205  A    between atoms: _495  and  _496
REMARK  206  A    between atoms: _501  and  _503
REMARK  207  A    between atoms: _503  and  _504
REMARK  208  A    between atoms: _503  and  _506
REMARK  209  A    between atoms: _509  and  _511
REMARK  210  A    between atoms: _511  and  _512
REMARK  211  A    between atoms: _511  and  _514
REMARK  212  A    between atoms: _514  and  _515
REMARK  213  A    between atoms: _520  and  _522
REMARK  214  A    between atoms: _522  and  _523
REMARK  215  A    between atoms: _522  and  _525
REMARK  216  A    between atoms: _525  and  _526
REMARK  217  A    between atoms: _529  and  _531
REMARK  218  A    between atoms: _531  and  _532
REMARK  219  A    between atoms: _531  and  _534
REMARK  220  A    between atoms: _534  and  _535
REMARK  221  A    between atoms: _538  and  _540
REMARK  222  A    between atoms: _540  and  _541
REMARK  223  A    between atoms: _543  and  _545
REMARK  224  A    between atoms: _545  and  _546
REMARK  225  A    between atoms: _545  and  _548
REMARK  226  A    between atoms: _548  and  _549
REMARK  227  A    between atoms: _549  and  _550
REMARK  228  A    between atoms: _550  and  _551
REMARK  229  A    between atoms: _560  and  _562
REMARK  230  A    between atoms: _562  and  _563
REMARK  231  A    between atoms: _562  and  _565
REMARK  232  A    between atoms: _565  and  _566
REMARK                            x       y       z     vdW  Elec       q    Type
REMARK                         _______ _______ _______ _____ _____    ______ ____
ROOT
ATOM      1  O   HOH     1      18.190  20.955  16.368  0.00  0.00    +0.000 OA
ENDROOT
TORSDOF 0
REMARK  Name = ../refined-set-2016/4zls/4zls_pocket.pdb
REMARK  232 active torsions:
REMARK  status: ('A' for Active; 'I' for Inactive)
REMARK    1  A    between atoms: _1  and  _3
REMARK    2  A    between atoms: _3  and  _4
REMARK    3  A    between atoms: _3  and  _6
REMARK    4  A    between atoms: _6  and  _7
REMARK    5  A    between atoms: _7  and  _8
REMARK    6  A    between atoms: _8  and  _9
REMARK    7  A    between atoms: _18  and  _20
REMARK    8  A    between atoms: _20  and  _21
REMARK    9  A    between atoms: _20  and  _23
REMARK   10  A    between atoms: _23  and  _24
REMARK   11  A    between atoms: _27  and  _29
REMARK   12  A    between atoms: _29  and  _30
REMARK   13  A    between atoms: _29  and  _32
REMARK   14  A    between atoms: _32  and  _33
REMARK   15  A    between atoms: _36  and  _38
REMARK   16  A    between atoms: _38  and  _39
REMARK   17  A    between atoms: _38  and  _41
REMARK   18  A    between atoms: _41  and  _42
REMARK   19  A    between atoms: _45  and  _47
REMARK   20  A    between atoms: _47  and  _48
REMARK   21  A    between atoms: _47  and  _50
REMARK   22  A    between atoms: _50  and  _51
REMARK   23  A    between atoms: _54  and  _56
REMARK   24  A    between atoms: _56  and  _57
REMARK   25  A    between atoms: _59  and  _61
REMARK   26  A    between atoms: _61  and  _62
REMARK   27  A    between atoms: _65  and  _67
REMARK   28  A    between atoms: _67  and  _68
REMARK   29  A    between atoms: _67  and  _70
REMARK   30  A    between atoms: _70  and  _71
REMARK   31  A    between atoms: _74  and  _76
REMARK   32  A    between atoms: _76  and  _77
REMARK   33  A    between atoms: _76  and  _79
REMARK   34  A    between atoms: _79  and  _80
REMARK   35  A    between atoms: _83  and  _85
REMARK   36  A    between atoms: _85  and  _86
REMARK   37  A    between atoms: _85  and  _88
REMARK   38  A    between atoms: _88  and  _89
REMARK   39  A    between atoms: _92  and  _94
REMARK   40  A    between atoms: _94  and  _95
REMARK   41  A    between atoms: _94  and  _97
REMARK   42  A    between atoms: _100  and  _102
REMARK   43  A    between atoms: _102  and  _103
REMARK   44  A    between atoms: _102  and  _105
REMARK   45  A    between atoms: _105  and  _106
REMARK   46  A    between atoms: _106  and  _107
REMARK   47  A    between atoms: _107  and  _108
REMARK   48  A    between atoms: _108  and  _109
REMARK   49  A    between atoms: _113  and  _115
REMARK   50  A    between atoms: _115  and  _116
REMARK   51  A    between atoms: _115  and  _118
REMARK   52  A    between atoms: _118  and  _119
REMARK   53  A    between atoms: _119  and  _120
REMARK   54  A    between atoms: _122  and  _124
REMARK   55  A    between atoms: _124  and  _125
REMARK   56  A    between atoms: _124  and  _127
REMARK   57  A    between atoms: _127  and  _128
REMARK   58  A    between atoms: _131  and  _133
REMARK   59  A    between atoms: _133  and  _134
REMARK   60  A    between atoms: _136  and  _138
REMARK   61  A    between atoms: _138  and  _139
REMARK   62  A    between atoms: _141  and  _143
REMARK   63  A    between atoms: _143  and  _144
REMARK   64  A    between atoms: _143  and  _146
REMARK   65  A    between atoms: _146  and  _147
REMARK   66  A    between atoms: _150  and  _152
REMARK   67  A    between atoms: _152  and  _153
REMARK   68  A    between atoms: _155  and  _157
REMARK   69  A    between atoms: _157  and  _158
REMARK   70  A    between atoms: _160  and  _162
REMARK   71  A    between atoms: _162  and  _163
REMARK   72  A    between atoms: _162  and  _165
REMARK   73  A    between atoms: _165  and  _166
REMARK   74  A    between atoms: _172  and  _174
REMARK   75  A    between atoms: _174  and  _175
REMARK   76  A    between atoms: _174  and  _177
REMARK   77  A    between atoms: _177  and  _178
REMARK   78  A    between atoms: _181  and  _183
REMARK   79  A    between atoms: _183  and  _184
REMARK   80  A    between atoms: _183  and  _186
REMARK   81  A    between atoms: _186  and  _187
REMARK   82  A    between atoms: _190  and  _192
REMARK   83  A    between atoms: _192  and  _193
REMARK   84  A    between atoms: _192  and  _195
REMARK   85  A    between atoms: _195  and  _196
REMARK   86  A    between atoms: _200  and  _201
REMARK   87  A    between atoms: _206  and  _208
REMARK   88  A    between atoms: _208  and  _209
REMARK   89  A    between atoms: _208  and  _211
REMARK   90  A    between atoms: _214  and  _216
REMARK   91  A    between atoms: _216  and  _217
REMARK   92  A    between atoms: _216  and  _219
REMARK   93  A    between atoms: _219  and  _220
REMARK   94  A    between atoms: _225  and  _227
REMARK   95  A    between atoms: _227  and  _228
REMARK   96  A    between atoms: _227  and  _230
REMARK   97  A    between atoms: _230  and  _231
REMARK   98  A    between atoms: _234  and  _236
REMARK   99  A    between atoms: _236  and  _237
REMARK  100  A    between atoms: _239  and  _241
REMARK  101  A    between atoms: _241  and  _242
REMARK  102  A    between atoms: _241  and  _244
REMARK  103  A    between atoms: _244  and  _245
REMARK  104  A    between atoms: _245  and  _246
REMARK  105  A    between atoms: _246  and  _247
REMARK  106  A    between atoms: _256  and  _258
REMARK  107  A    between atoms: _258  and  _259
REMARK  108  A    between atoms: _258  and  _261
REMARK  109  A    between atoms: _261  and  _262
REMARK  110  A    between atoms: _267  and  _269
REMARK  111  A    between atoms: _269  and  _270
REMARK  112  A    between atoms: _269  and  _272
REMARK  113  A    between atoms: _272  and  _273
REMARK  114  A    between atoms: _273  and  _274
REMARK  115  A    between atoms: _274  and  _275
REMARK  116  A    between atoms: _284  and  _286
REMARK  117  A    between atoms: _286  and  _287
REMARK  118  A    between atoms: _286  and  _289
REMARK  119  A    between atoms: _289  and  _290
REMARK  120  A    between atoms: _293  and  _295
REMARK  121  A    between atoms: _295  and  _296
REMARK  122  A    between atoms: _295  and  _298
REMARK  123  A    between atoms: _298  and  _299
REMARK  124  A    between atoms: _302  and  _304
REMARK  125  A    between atoms: _304  and  _305
REMARK  126  A    between atoms: _304  and  _307
REMARK  127  A    between atoms: _307  and  _308
REMARK  128  A    between atoms: _311  and  _313
REMARK  129  A    between atoms: _313  and  _314
REMARK  130  A    between atoms: _313  and  _316
REMARK  131  A    between atoms: _316  and  _317
REMARK  132  A    between atoms: _320  and  _322
REMARK  133  A    between atoms: _322  and  _323
REMARK  134  A    between atoms: _322  and  _325
REMARK  135  A    between atoms: _325  and  _326
REMARK  136  A    between atoms: _329  and  _331
REMARK  137  A    between atoms: _331  and  _332
REMARK  138  A    between atoms: _334  and  _336
REMARK  139  A    between atoms: _336  and  _337
REMARK  140  A    between atoms: _340  and  _342
REMARK  141  A    between atoms: _342  and  _343
REMARK  142  A    between atoms: _342  and  _345
REMARK  143  A    between atoms: _345  and  _346
REMARK  144  A    between atoms: _349  and  _351
REMARK  145  A    between atoms: _351  and  _352
REMARK  146  A    between atoms: _351  and  _354
REMARK  147  A    between atoms: _354  and  _355
REMARK  148  A    between atoms: _358  and  _360
REMARK  149  A    between atoms: _360  and  _361
REMARK  150  A    between atoms: _360  and  _363
REMARK  151  A    between atoms: _363  and  _364
REMARK  152  A    between atoms: _367  and  _369
REMARK  153  A    between atoms: _369  and  _370
REMARK  154  A    between atoms: _369  and  _372
REMARK  155  A    between atoms: _375  and  _377
REMARK  156  A    between atoms: _377  and  _378
REMARK  157  A    between atoms: _377  and  _380
REMARK  158  A    between atoms: _380  and  _381
REMARK  159  A    between atoms: _381  and  _382
REMARK  160  A    between atoms: _382  and  _383
REMARK  161  A    between atoms: _383  and  _384
REMARK  162  A    between atoms: _388  and  _390
REMARK  163  A    between atoms: _390  and  _391
REMARK  164  A    between atoms: _390  and  _393
REMARK  165  A    between atoms: _393  and  _394
REMARK  166  A    between atoms: _394  and  _395
REMARK  167  A    between atoms: _397  and  _399
REMARK  168  A    between atoms: _399  and  _400
REMARK  169  A    between atoms: _399  and  _402
REMARK  170  A    between atoms: _402  and  _403
REMARK  171  A    between atoms: _406  and  _408
REMARK  172  A    between atoms: _408  and  _409
REMARK  173  A    between atoms: _411  and  _413
REMARK  174  A    between atoms: _413  and  _414
REMARK  175  A    between atoms: _416  and  _418
REMARK  176  A    between atoms: _418  and  _419
REMARK  177  A    between atoms: _418  and  _421
REMARK  178  A    between atoms: _421  and  _422
REMARK  179  A    between atoms: _425  and  _427
REMARK  180  A    between atoms: _427  and  _428
REMARK  181  A    between atoms: _430  and  _432
REMARK  182  A    between atoms: _432  and  _433
REMARK  183  A    between atoms: _435  and  _437
REMARK  184  A    between atoms: _437  and  _438
REMARK  185  A    between atoms: _437  and  _440
REMARK  186  A    between atoms: _440  and  _441
REMARK  187  A    between atoms: _447  and  _449
REMARK  188  A    between atoms: _449  and  _450
REMARK  189  A    between atoms: _449  and  _452
REMARK  190  A    between atoms: _452  and  _453
REMARK  191  A    between atoms: _456  and  _458
REMARK  192  A    between atoms: _458  and  _459
REMARK  193  A    between atoms: _458  and  _461
REMARK  194  A    between atoms: _464  and  _466
REMARK  195  A    between atoms: _466  and  _467
REMARK  196  A    between atoms: _466  and  _469
REMARK  197  A    between atoms: _469  and  _470
REMARK  198  A    between atoms: _473  and  _475
REMARK  199  A    between atoms: _475  and  _476
REMARK  200  A    between atoms: _479  and  _480
REMARK  201  A    between atoms: _485  and  _487
REMARK  202  A    between atoms: _487  and  _488
REMARK  203  A    between atoms: _487  and  _490
REMARK  204  A    between atoms: _490  and  _491
REMARK  205  A    between atoms: _495  and  _496
REMARK  206  A    between atoms: _501  and  _503
REMARK  207  A    between atoms: _503  and  _504
REMARK  208  A    between atoms: _503  and  _506
REMARK  209  A    between atoms: _509  and  _511
REMARK  210  A    between atoms: _511  and  _512
REMARK  211  A    between atoms: _511  and  _514
REMARK  212  A    between atoms: _514  and  _515
REMARK  213  A    between atoms: _520  and  _522
REMARK  214  A    between atoms: _522  and  _523
REMARK  215  A    between atoms: _522  and  _525
REMARK  216  A    between atoms: _525  and  _526
REMARK  217  A    between atoms: _529  and  _531
REMARK  218  A    between atoms: _531  and  _532
REMARK  219  A    between atoms: _531  and  _534
REMARK  220  A    between atoms: _534  and  _535
REMARK  221  A    between atoms: _538  and  _540
REMARK  222  A    between atoms: _540  and  _541
REMARK  223  A    between atoms: _543  and  _545
REMARK  224  A    between atoms: _545  and  _546
REMARK  225  A    between atoms: _545  and  _548
REMARK  226  A    between atoms: _548  and  _549
REMARK  227  A    between atoms: _549  and  _550
REMARK  228  A    between atoms: _550  and  _551
REMARK  229  A    between atoms: _560  and  _562
REMARK  230  A    between atoms: _562  and  _563
REMARK  231  A    between atoms: _562  and  _565
REMARK  232  A    between atoms: _565  and  _566
REMARK                            x       y       z     vdW  Elec       q    Type
REMARK                         _______ _______ _______ _____ _____    ______ ____
ROOT
ATOM      1  O   HOH     1      23.202  28.214  26.405  0.00  0.00    +0.000 OA
ENDROOT
TORSDOF 0
REMARK  Name = ../refined-set-2016/4zls/4zls_pocket.pdb
REMARK  232 active torsions:
REMARK  status: ('A' for Active; 'I' for Inactive)
REMARK    1  A    between atoms: _1  and  _3
REMARK    2  A    between atoms: _3  and  _4
REMARK    3  A    between atoms: _3  and  _6
REMARK    4  A    between atoms: _6  and  _7
REMARK    5  A    between atoms: _7  and  _8
REMARK    6  A    between atoms: _8  and  _9
REMARK    7  A    between atoms: _18  and  _20
REMARK    8  A    between atoms: _20  and  _21
REMARK    9  A    between atoms: _20  and  _23
REMARK   10  A    between atoms: _23  and  _24
REMARK   11  A    between atoms: _27  and  _29
REMARK   12  A    between atoms: _29  and  _30
REMARK   13  A    between atoms: _29  and  _32
REMARK   14  A    between atoms: _32  and  _33
REMARK   15  A    between atoms: _36  and  _38
REMARK   16  A    between atoms: _38  and  _39
REMARK   17  A    between atoms: _38  and  _41
REMARK   18  A    between atoms: _41  and  _42
REMARK   19  A    between atoms: _45  and  _47
REMARK   20  A    between atoms: _47  and  _48
REMARK   21  A    between atoms: _47  and  _50
REMARK   22  A    between atoms: _50  and  _51
REMARK   23  A    between atoms: _54  and  _56
REMARK   24  A    between atoms: _56  and  _57
REMARK   25  A    between atoms: _59  and  _61
REMARK   26  A    between atoms: _61  and  _62
REMARK   27  A    between atoms: _65  and  _67
REMARK   28  A    between atoms: _67  and  _68
REMARK   29  A    between atoms: _67  and  _70
REMARK   30  A    between atoms: _70  and  _71
REMARK   31  A    between atoms: _74  and  _76
REMARK   32  A    between atoms: _76  and  _77
REMARK   33  A    between atoms: _76  and  _79
REMARK   34  A    between atoms: _79  and  _80
REMARK   35  A    between atoms: _83  and  _85
REMARK   36  A    between atoms: _85  and  _86
REMARK   37  A    between atoms: _85  and  _88
REMARK   38  A    between atoms: _88  and  _89
REMARK   39  A    between atoms: _92  and  _94
REMARK   40  A    between atoms: _94  and  _95
REMARK   41  A    between atoms: _94  and  _97
REMARK   42  A    between atoms: _100  and  _102
REMARK   43  A    between atoms: _102  and  _103
REMARK   44  A    between atoms: _102  and  _105
REMARK   45  A    between atoms: _105  and  _106
REMARK   46  A    between atoms: _106  and  _107
REMARK   47  A    between atoms: _107  and  _108
REMARK   48  A    between atoms: _108  and  _109
REMARK   49  A    between atoms: _113  and  _115
REMARK   50  A    between atoms: _115  and  _116
REMARK   51  A    between atoms: _115  and  _118
REMARK   52  A    between atoms: _118  and  _119
REMARK   53  A    between atoms: _119  and  _120
REMARK   54  A    between atoms: _122  and  _124
REMARK   55  A    between atoms: _124  and  _125
REMARK   56  A    between atoms: _124  and  _127
REMARK   57  A    between atoms: _127  and  _128
REMARK   58  A    between atoms: _131  and  _133
REMARK   59  A    between atoms: _133  and  _134
REMARK   60  A    between atoms: _136  and  _138
REMARK   61  A    between atoms: _138  and  _139
REMARK   62  A    between atoms: _141  and  _143
REMARK   63  A    between atoms: _143  and  _144
REMARK   64  A    between atoms: _143  and  _146
REMARK   65  A    between atoms: _146  and  _147
REMARK   66  A    between atoms: _150  and  _152
REMARK   67  A    between atoms: _152  and  _153
REMARK   68  A    between atoms: _155  and  _157
REMARK   69  A    between atoms: _157  and  _158
REMARK   70  A    between atoms: _160  and  _162
REMARK   71  A    between atoms: _162  and  _163
REMARK   72  A    between atoms: _162  and  _165
REMARK   73  A    between atoms: _165  and  _166
REMARK   74  A    between atoms: _172  and  _174
REMARK   75  A    between atoms: _174  and  _175
REMARK   76  A    between atoms: _174  and  _177
REMARK   77  A    between atoms: _177  and  _178
REMARK   78  A    between atoms: _181  and  _183
REMARK   79  A    between atoms: _183  and  _184
REMARK   80  A    between atoms: _183  and  _186
REMARK   81  A    between atoms: _186  and  _187
REMARK   82  A    between atoms: _190  and  _192
REMARK   83  A    between atoms: _192  and  _193
REMARK   84  A    between atoms: _192  and  _195
REMARK   85  A    between atoms: _195  and  _196
REMARK   86  A    between atoms: _200  and  _201
REMARK   87  A    between atoms: _206  and  _208
REMARK   88  A    between atoms: _208  and  _209
REMARK   89  A    between atoms: _208  and  _211
REMARK   90  A    between atoms: _214  and  _216
REMARK   91  A    between atoms: _216  and  _217
REMARK   92  A    between atoms: _216  and  _219
REMARK   93  A    between atoms: _219  and  _220
REMARK   94  A    between atoms: _225  and  _227
REMARK   95  A    between atoms: _227  and  _228
REMARK   96  A    between atoms: _227  and  _230
REMARK   97  A    between atoms: _230  and  _231
REMARK   98  A    between atoms: _234  and  _236
REMARK   99  A    between atoms: _236  and  _237
REMARK  100  A    between atoms: _239  and  _241
REMARK  101  A    between atoms: _241  and  _242
REMARK  102  A    between atoms: _241  and  _244
REMARK  103  A    between atoms: _244  and  _245
REMARK  104  A    between atoms: _245  and  _246
REMARK  105  A    between atoms: _246  and  _247
REMARK  106  A    between atoms: _256  and  _258
REMARK  107  A    between atoms: _258  and  _259
REMARK  108  A    between atoms: _258  and  _261
REMARK  109  A    between atoms: _261  and  _262
REMARK  110  A    between atoms: _267  and  _269
REMARK  111  A    between atoms: _269  and  _270
REMARK  112  A    between atoms: _269  and  _272
REMARK  113  A    between atoms: _272  and  _273
REMARK  114  A    between atoms: _273  and  _274
REMARK  115  A    between atoms: _274  and  _275
REMARK  116  A    between atoms: _284  and  _286
REMARK  117  A    between atoms: _286  and  _287
REMARK  118  A    between atoms: _286  and  _289
REMARK  119  A    between atoms: _289  and  _290
REMARK  120  A    between atoms: _293  and  _295
REMARK  121  A    between atoms: _295  and  _296
REMARK  122  A    between atoms: _295  and  _298
REMARK  123  A    between atoms: _298  and  _299
REMARK  124  A    between atoms: _302  and  _304
REMARK  125  A    between atoms: _304  and  _305
REMARK  126  A    between atoms: _304  and  _307
REMARK  127  A    between atoms: _307  and  _308
REMARK  128  A    between atoms: _311  and  _313
REMARK  129  A    between atoms: _313  and  _314
REMARK  130  A    between atoms: _313  and  _316
REMARK  131  A    between atoms: _316  and  _317
REMARK  132  A    between atoms: _320  and  _322
REMARK  133  A    between atoms: _322  and  _323
REMARK  134  A    between atoms: _322  and  _325
REMARK  135  A    between atoms: _325  and  _326
REMARK  136  A    between atoms: _329  and  _331
REMARK  137  A    between atoms: _331  and  _332
REMARK  138  A    between atoms: _334  and  _336
REMARK  139  A    between atoms: _336  and  _337
REMARK  140  A    between atoms: _340  and  _342
REMARK  141  A    between atoms: _342  and  _343
REMARK  142  A    between atoms: _342  and  _345
REMARK  143  A    between atoms: _345  and  _346
REMARK  144  A    between atoms: _349  and  _351
REMARK  145  A    between atoms: _351  and  _352
REMARK  146  A    between atoms: _351  and  _354
REMARK  147  A    between atoms: _354  and  _355
REMARK  148  A    between atoms: _358  and  _360
REMARK  149  A    between atoms: _360  and  _361
REMARK  150  A    between atoms: _360  and  _363
REMARK  151  A    between atoms: _363  and  _364
REMARK  152  A    between atoms: _367  and  _369
REMARK  153  A    between atoms: _369  and  _370
REMARK  154  A    between atoms: _369  and  _372
REMARK  155  A    between atoms: _375  and  _377
REMARK  156  A    between atoms: _377  and  _378
REMARK  157  A    between atoms: _377  and  _380
REMARK  158  A    between atoms: _380  and  _381
REMARK  159  A    between atoms: _381  and  _382
REMARK  160  A    between atoms: _382  and  _383
REMARK  161  A    between atoms: _383  and  _384
REMARK  162  A    between atoms: _388  and  _390
REMARK  163  A    between atoms: _390  and  _391
REMARK  164  A    between atoms: _390  and  _393
REMARK  165  A    between atoms: _393  and  _394
REMARK  166  A    between atoms: _394  and  _395
REMARK  167  A    between atoms: _397  and  _399
REMARK  168  A    between atoms: _399  and  _400
REMARK  169  A    between atoms: _399  and  _402
REMARK  170  A    between atoms: _402  and  _403
REMARK  171  A    between atoms: _406  and  _408
REMARK  172  A    between atoms: _408  and  _409
REMARK  173  A    between atoms: _411  and  _413
REMARK  174  A    between atoms: _413  and  _414
REMARK  175  A    between atoms: _416  and  _418
REMARK  176  A    between atoms: _418  and  _419
REMARK  177  A    between atoms: _418  and  _421
REMARK  178  A    between atoms: _421  and  _422
REMARK  179  A    between atoms: _425  and  _427
REMARK  180  A    between atoms: _427  and  _428
REMARK  181  A    between atoms: _430  and  _432
REMARK  182  A    between atoms: _432  and  _433
REMARK  183  A    between atoms: _435  and  _437
REMARK  184  A    between atoms: _437  and  _438
REMARK  185  A    between atoms: _437  and  _440
REMARK  186  A    between atoms: _440  and  _441
REMARK  187  A    between atoms: _447  and  _449
REMARK  188  A    between atoms: _449  and  _450
REMARK  189  A    between atoms: _449  and  _452
REMARK  190  A    between atoms: _452  and  _453
REMARK  191  A    between atoms: _456  and  _458
REMARK  192  A    between atoms: _458  and  _459
REMARK  193  A    between atoms: _458  and  _461
REMARK  194  A    between atoms: _464  and  _466
REMARK  195  A    between atoms: _466  and  _467
REMARK  196  A    between atoms: _466  and  _469
REMARK  197  A    between atoms: _469  and  _470
REMARK  198  A    between atoms: _473  and  _475
REMARK  199  A    between atoms: _475  and  _476
REMARK  200  A    between atoms: _479  and  _480
REMARK  201  A    between atoms: _485  and  _487
REMARK  202  A    between atoms: _487  and  _488
REMARK  203  A    between atoms: _487  and  _490
REMARK  204  A    between atoms: _490  and  _491
REMARK  205  A    between atoms: _495  and  _496
REMARK  206  A    between atoms: _501  and  _503
REMARK  207  A    between atoms: _503  and  _504
REMARK  208  A    between atoms: _503  and  _506
REMARK  209  A    between atoms: _509  and  _511
REMARK  210  A    between atoms: _511  and  _512
REMARK  211  A    between atoms: _511  and  _514
REMARK  212  A    between atoms: _514  and  _515
REMARK  213  A    between atoms: _520  and  _522
REMARK  214  A    between atoms: _522  and  _523
REMARK  215  A    between atoms: _522  and  _525
REMARK  216  A    between atoms: _525  and  _526
REMARK  217  A    between atoms: _529  and  _531
REMARK  218  A    between atoms: _531  and  _532
REMARK  219  A    between atoms: _531  and  _534
REMARK  220  A    between atoms: _534  and  _535
REMARK  221  A    between atoms: _538  and  _540
REMARK  222  A    between atoms: _540  and  _541
REMARK  223  A    between atoms: _543  and  _545
REMARK  224  A    between atoms: _545  and  _546
REMARK  225  A    between atoms: _545  and  _548
REMARK  226  A    between atoms: _548  and  _549
REMARK  227  A    between atoms: _549  and  _550
REMARK  228  A    between atoms: _550  and  _551
REMARK  229  A    between atoms: _560  and  _562
REMARK  230  A    between atoms: _562  and  _563
REMARK  231  A    between atoms: _562  and  _565
REMARK  232  A    between atoms: _565  and  _566
REMARK                            x       y       z     vdW  Elec       q    Type
REMARK                         _______ _______ _______ _____ _____    ______ ____
ROOT
ATOM      1  O   HOH     1      23.826  15.666  27.693  0.00  0.00    +0.000 OA
ENDROOT
TORSDOF 0
REMARK  Name = ../refined-set-2016/4zls/4zls_pocket.pdb
REMARK  232 active torsions:
REMARK  status: ('A' for Active; 'I' for Inactive)
REMARK    1  A    between atoms: _1  and  _3
REMARK    2  A    between atoms: _3  and  _4
REMARK    3  A    between atoms: _3  and  _6
REMARK    4  A    between atoms: _6  and  _7
REMARK    5  A    between atoms: _7  and  _8
REMARK    6  A    between atoms: _8  and  _9
REMARK    7  A    between atoms: _18  and  _20
REMARK    8  A    between atoms: _20  and  _21
REMARK    9  A    between atoms: _20  and  _23
REMARK   10  A    between atoms: _23  and  _24
REMARK   11  A    between atoms: _27  and  _29
REMARK   12  A    between atoms: _29  and  _30
REMARK   13  A    between atoms: _29  and  _32
REMARK   14  A    between atoms: _32  and  _33
REMARK   15  A    between atoms: _36  and  _38
REMARK   16  A    between atoms: _38  and  _39
REMARK   17  A    between atoms: _38  and  _41
REMARK   18  A    between atoms: _41  and  _42
REMARK   19  A    between atoms: _45  and  _47
REMARK   20  A    between atoms: _47  and  _48
REMARK   21  A    between atoms: _47  and  _50
REMARK   22  A    between atoms: _50  and  _51
REMARK   23  A    between atoms: _54  and  _56
REMARK   24  A    between atoms: _56  and  _57
REMARK   25  A    between atoms: _59  and  _61
REMARK   26  A    between atoms: _61  and  _62
REMARK   27  A    between atoms: _65  and  _67
REMARK   28  A    between atoms: _67  and  _68
REMARK   29  A    between atoms: _67  and  _70
REMARK   30  A    between atoms: _70  and  _71
REMARK   31  A    between atoms: _74  and  _76
REMARK   32  A    between atoms: _76  and  _77
REMARK   33  A    between atoms: _76  and  _79
REMARK   34  A    between atoms: _79  and  _80
REMARK   35  A    between atoms: _83  and  _85
REMARK   36  A    between atoms: _85  and  _86
REMARK   37  A    between atoms: _85  and  _88
REMARK   38  A    between atoms: _88  and  _89
REMARK   39  A    between atoms: _92  and  _94
REMARK   40  A    between atoms: _94  and  _95
REMARK   41  A    between atoms: _94  and  _97
REMARK   42  A    between atoms: _100  and  _102
REMARK   43  A    between atoms: _102  and  _103
REMARK   44  A    between atoms: _102  and  _105
REMARK   45  A    between atoms: _105  and  _106
REMARK   46  A    between atoms: _106  and  _107
REMARK   47  A    between atoms: _107  and  _108
REMARK   48  A    between atoms: _108  and  _109
REMARK   49  A    between atoms: _113  and  _115
REMARK   50  A    between atoms: _115  and  _116
REMARK   51  A    between atoms: _115  and  _118
REMARK   52  A    between atoms: _118  and  _119
REMARK   53  A    between atoms: _119  and  _120
REMARK   54  A    between atoms: _122  and  _124
REMARK   55  A    between atoms: _124  and  _125
REMARK   56  A    between atoms: _124  and  _127
REMARK   57  A    between atoms: _127  and  _128
REMARK   58  A    between atoms: _131  and  _133
REMARK   59  A    between atoms: _133  and  _134
REMARK   60  A    between atoms: _136  and  _138
REMARK   61  A    between atoms: _138  and  _139
REMARK   62  A    between atoms: _141  and  _143
REMARK   63  A    between atoms: _143  and  _144
REMARK   64  A    between atoms: _143  and  _146
REMARK   65  A    between atoms: _146  and  _147
REMARK   66  A    between atoms: _150  and  _152
REMARK   67  A    between atoms: _152  and  _153
REMARK   68  A    between atoms: _155  and  _157
REMARK   69  A    between atoms: _157  and  _158
REMARK   70  A    between atoms: _160  and  _162
REMARK   71  A    between atoms: _162  and  _163
REMARK   72  A    between atoms: _162  and  _165
REMARK   73  A    between atoms: _165  and  _166
REMARK   74  A    between atoms: _172  and  _174
REMARK   75  A    between atoms: _174  and  _175
REMARK   76  A    between atoms: _174  and  _177
REMARK   77  A    between atoms: _177  and  _178
REMARK   78  A    between atoms: _181  and  _183
REMARK   79  A    between atoms: _183  and  _184
REMARK   80  A    between atoms: _183  and  _186
REMARK   81  A    between atoms: _186  and  _187
REMARK   82  A    between atoms: _190  and  _192
REMARK   83  A    between atoms: _192  and  _193
REMARK   84  A    between atoms: _192  and  _195
REMARK   85  A    between atoms: _195  and  _196
REMARK   86  A    between atoms: _200  and  _201
REMARK   87  A    between atoms: _206  and  _208
REMARK   88  A    between atoms: _208  and  _209
REMARK   89  A    between atoms: _208  and  _211
REMARK   90  A    between atoms: _214  and  _216
REMARK   91  A    between atoms: _216  and  _217
REMARK   92  A    between atoms: _216  and  _219
REMARK   93  A    between atoms: _219  and  _220
REMARK   94  A    between atoms: _225  and  _227
REMARK   95  A    between atoms: _227  and  _228
REMARK   96  A    between atoms: _227  and  _230
REMARK   97  A    between atoms: _230  and  _231
REMARK   98  A    between atoms: _234  and  _236
REMARK   99  A    between atoms: _236  and  _237
REMARK  100  A    between atoms: _239  and  _241
REMARK  101  A    between atoms: _241  and  _242
REMARK  102  A    between atoms: _241  and  _244
REMARK  103  A    between atoms: _244  and  _245
REMARK  104  A    between atoms: _245  and  _246
REMARK  105  A    between atoms: _246  and  _247
REMARK  106  A    between atoms: _256  and  _258
REMARK  107  A    between atoms: _258  and  _259
REMARK  108  A    between atoms: _258  and  _261
REMARK  109  A    between atoms: _261  and  _262
REMARK  110  A    between atoms: _267  and  _269
REMARK  111  A    between atoms: _269  and  _270
REMARK  112  A    between atoms: _269  and  _272
REMARK  113  A    between atoms: _272  and  _273
REMARK  114  A    between atoms: _273  and  _274
REMARK  115  A    between atoms: _274  and  _275
REMARK  116  A    between atoms: _284  and  _286
REMARK  117  A    between atoms: _286  and  _287
REMARK  118  A    between atoms: _286  and  _289
REMARK  119  A    between atoms: _289  and  _290
REMARK  120  A    between atoms: _293  and  _295
REMARK  121  A    between atoms: _295  and  _296
REMARK  122  A    between atoms: _295  and  _298
REMARK  123  A    between atoms: _298  and  _299
REMARK  124  A    between atoms: _302  and  _304
REMARK  125  A    between atoms: _304  and  _305
REMARK  126  A    between atoms: _304  and  _307
REMARK  127  A    between atoms: _307  and  _308
REMARK  128  A    between atoms: _311  and  _313
REMARK  129  A    between atoms: _313  and  _314
REMARK  130  A    between atoms: _313  and  _316
REMARK  131  A    between atoms: _316  and  _317
REMARK  132  A    between atoms: _320  and  _322
REMARK  133  A    between atoms: _322  and  _323
REMARK  134  A    between atoms: _322  and  _325
REMARK  135  A    between atoms: _325  and  _326
REMARK  136  A    between atoms: _329  and  _331
REMARK  137  A    between atoms: _331  and  _332
REMARK  138  A    between atoms: _334  and  _336
REMARK  139  A    between atoms: _336  and  _337
REMARK  140  A    between atoms: _340  and  _342
REMARK  141  A    between atoms: _342  and  _343
REMARK  142  A    between atoms: _342  and  _345
REMARK  143  A    between atoms: _345  and  _346
REMARK  144  A    between atoms: _349  and  _351
REMARK  145  A    between atoms: _351  and  _352
REMARK  146  A    between atoms: _351  and  _354
REMARK  147  A    between atoms: _354  and  _355
REMARK  148  A    between atoms: _358  and  _360
REMARK  149  A    between atoms: _360  and  _361
REMARK  150  A    between atoms: _360  and  _363
REMARK  151  A    between atoms: _363  and  _364
REMARK  152  A    between atoms: _367  and  _369
REMARK  153  A    between atoms: _369  and  _370
REMARK  154  A    between atoms: _369  and  _372
REMARK  155  A    between atoms: _375  and  _377
REMARK  156  A    between atoms: _377  and  _378
REMARK  157  A    between atoms: _377  and  _380
REMARK  158  A    between atoms: _380  and  _381
REMARK  159  A    between atoms: _381  and  _382
REMARK  160  A    between atoms: _382  and  _383
REMARK  161  A    between atoms: _383  and  _384
REMARK  162  A    between atoms: _388  and  _390
REMARK  163  A    between atoms: _390  and  _391
REMARK  164  A    between atoms: _390  and  _393
REMARK  165  A    between atoms: _393  and  _394
REMARK  166  A    between atoms: _394  and  _395
REMARK  167  A    between atoms: _397  and  _399
REMARK  168  A    between atoms: _399  and  _400
REMARK  169  A    between atoms: _399  and  _402
REMARK  170  A    between atoms: _402  and  _403
REMARK  171  A    between atoms: _406  and  _408
REMARK  172  A    between atoms: _408  and  _409
REMARK  173  A    between atoms: _411  and  _413
REMARK  174  A    between atoms: _413  and  _414
REMARK  175  A    between atoms: _416  and  _418
REMARK  176  A    between atoms: _418  and  _419
REMARK  177  A    between atoms: _418  and  _421
REMARK  178  A    between atoms: _421  and  _422
REMARK  179  A    between atoms: _425  and  _427
REMARK  180  A    between atoms: _427  and  _428
REMARK  181  A    between atoms: _430  and  _432
REMARK  182  A    between atoms: _432  and  _433
REMARK  183  A    between atoms: _435  and  _437
REMARK  184  A    between atoms: _437  and  _438
REMARK  185  A    between atoms: _437  and  _440
REMARK  186  A    between atoms: _440  and  _441
REMARK  187  A    between atoms: _447  and  _449
REMARK  188  A    between atoms: _449  and  _450
REMARK  189  A    between atoms: _449  and  _452
REMARK  190  A    between atoms: _452  and  _453
REMARK  191  A    between atoms: _456  and  _458
REMARK  192  A    between atoms: _458  and  _459
REMARK  193  A    between atoms: _458  and  _461
REMARK  194  A    between atoms: _464  and  _466
REMARK  195  A    between atoms: _466  and  _467
REMARK  196  A    between atoms: _466  and  _469
REMARK  197  A    between atoms: _469  and  _470
REMARK  198  A    between atoms: _473  and  _475
REMARK  199  A    between atoms: _475  and  _476
REMARK  200  A    between atoms: _479  and  _480
REMARK  201  A    between atoms: _485  and  _487
REMARK  202  A    between atoms: _487  and  _488
REMARK  203  A    between atoms: _487  and  _490
REMARK  204  A    between atoms: _490  and  _491
REMARK  205  A    between atoms: _495  and  _496
REMARK  206  A    between atoms: _501  and  _503
REMARK  207  A    between atoms: _503  and  _504
REMARK  208  A    between atoms: _503  and  _506
REMARK  209  A    between atoms: _509  and  _511
REMARK  210  A    between atoms: _511  and  _512
REMARK  211  A    between atoms: _511  and  _514
REMARK  212  A    between atoms: _514  and  _515
REMARK  213  A    between atoms: _520  and  _522
REMARK  214  A    between atoms: _522  and  _523
REMARK  215  A    between atoms: _522  and  _525
REMARK  216  A    between atoms: _525  and  _526
REMARK  217  A    between atoms: _529  and  _531
REMARK  218  A    between atoms: _531  and  _532
REMARK  219  A    between atoms: _531  and  _534
REMARK  220  A    between atoms: _534  and  _535
REMARK  221  A    between atoms: _538  and  _540
REMARK  222  A    between atoms: _540  and  _541
REMARK  223  A    between atoms: _543  and  _545
REMARK  224  A    between atoms: _545  and  _546
REMARK  225  A    between atoms: _545  and  _548
REMARK  226  A    between atoms: _548  and  _549
REMARK  227  A    between atoms: _549  and  _550
REMARK  228  A    between atoms: _550  and  _551
REMARK  229  A    between atoms: _560  and  _562
REMARK  230  A    between atoms: _562  and  _563
REMARK  231  A    between atoms: _562  and  _565
REMARK  232  A    between atoms: _565  and  _566
REMARK                            x       y       z     vdW  Elec       q    Type
REMARK                         _______ _______ _______ _____ _____    ______ ____
ROOT
ATOM      1  O   HOH     1      21.292  24.376  29.445  0.00  0.00    +0.000 OA
ENDROOT
TORSDOF 0
REMARK  Name = ../refined-set-2016/4zls/4zls_pocket.pdb
REMARK  232 active torsions:
REMARK  status: ('A' for Active; 'I' for Inactive)
REMARK    1  A    between atoms: _1  and  _3
REMARK    2  A    between atoms: _3  and  _4
REMARK    3  A    between atoms: _3  and  _6
REMARK    4  A    between atoms: _6  and  _7
REMARK    5  A    between atoms: _7  and  _8
REMARK    6  A    between atoms: _8  and  _9
REMARK    7  A    between atoms: _18  and  _20
REMARK    8  A    between atoms: _20  and  _21
REMARK    9  A    between atoms: _20  and  _23
REMARK   10  A    between atoms: _23  and  _24
REMARK   11  A    between atoms: _27  and  _29
REMARK   12  A    between atoms: _29  and  _30
REMARK   13  A    between atoms: _29  and  _32
REMARK   14  A    between atoms: _32  and  _33
REMARK   15  A    between atoms: _36  and  _38
REMARK   16  A    between atoms: _38  and  _39
REMARK   17  A    between atoms: _38  and  _41
REMARK   18  A    between atoms: _41  and  _42
REMARK   19  A    between atoms: _45  and  _47
REMARK   20  A    between atoms: _47  and  _48
REMARK   21  A    between atoms: _47  and  _50
REMARK   22  A    between atoms: _50  and  _51
REMARK   23  A    between atoms: _54  and  _56
REMARK   24  A    between atoms: _56  and  _57
REMARK   25  A    between atoms: _59  and  _61
REMARK   26  A    between atoms: _61  and  _62
REMARK   27  A    between atoms: _65  and  _67
REMARK   28  A    between atoms: _67  and  _68
REMARK   29  A    between atoms: _67  and  _70
REMARK   30  A    between atoms: _70  and  _71
REMARK   31  A    between atoms: _74  and  _76
REMARK   32  A    between atoms: _76  and  _77
REMARK   33  A    between atoms: _76  and  _79
REMARK   34  A    between atoms: _79  and  _80
REMARK   35  A    between atoms: _83  and  _85
REMARK   36  A    between atoms: _85  and  _86
REMARK   37  A    between atoms: _85  and  _88
REMARK   38  A    between atoms: _88  and  _89
REMARK   39  A    between atoms: _92  and  _94
REMARK   40  A    between atoms: _94  and  _95
REMARK   41  A    between atoms: _94  and  _97
REMARK   42  A    between atoms: _100  and  _102
REMARK   43  A    between atoms: _102  and  _103
REMARK   44  A    between atoms: _102  and  _105
REMARK   45  A    between atoms: _105  and  _106
REMARK   46  A    between atoms: _106  and  _107
REMARK   47  A    between atoms: _107  and  _108
REMARK   48  A    between atoms: _108  and  _109
REMARK   49  A    between atoms: _113  and  _115
REMARK   50  A    between atoms: _115  and  _116
REMARK   51  A    between atoms: _115  and  _118
REMARK   52  A    between atoms: _118  and  _119
REMARK   53  A    between atoms: _119  and  _120
REMARK   54  A    between atoms: _122  and  _124
REMARK   55  A    between atoms: _124  and  _125
REMARK   56  A    between atoms: _124  and  _127
REMARK   57  A    between atoms: _127  and  _128
REMARK   58  A    between atoms: _131  and  _133
REMARK   59  A    between atoms: _133  and  _134
REMARK   60  A    between atoms: _136  and  _138
REMARK   61  A    between atoms: _138  and  _139
REMARK   62  A    between atoms: _141  and  _143
REMARK   63  A    between atoms: _143  and  _144
REMARK   64  A    between atoms: _143  and  _146
REMARK   65  A    between atoms: _146  and  _147
REMARK   66  A    between atoms: _150  and  _152
REMARK   67  A    between atoms: _152  and  _153
REMARK   68  A    between atoms: _155  and  _157
REMARK   69  A    between atoms: _157  and  _158
REMARK   70  A    between atoms: _160  and  _162
REMARK   71  A    between atoms: _162  and  _163
REMARK   72  A    between atoms: _162  and  _165
REMARK   73  A    between atoms: _165  and  _166
REMARK   74  A    between atoms: _172  and  _174
REMARK   75  A    between atoms: _174  and  _175
REMARK   76  A    between atoms: _174  and  _177
REMARK   77  A    between atoms: _177  and  _178
REMARK   78  A    between atoms: _181  and  _183
REMARK   79  A    between atoms: _183  and  _184
REMARK   80  A    between atoms: _183  and  _186
REMARK   81  A    between atoms: _186  and  _187
REMARK   82  A    between atoms: _190  and  _192
REMARK   83  A    between atoms: _192  and  _193
REMARK   84  A    between atoms: _192  and  _195
REMARK   85  A    between atoms: _195  and  _196
REMARK   86  A    between atoms: _200  and  _201
REMARK   87  A    between atoms: _206  and  _208
REMARK   88  A    between atoms: _208  and  _209
REMARK   89  A    between atoms: _208  and  _211
REMARK   90  A    between atoms: _214  and  _216
REMARK   91  A    between atoms: _216  and  _217
REMARK   92  A    between atoms: _216  and  _219
REMARK   93  A    between atoms: _219  and  _220
REMARK   94  A    between atoms: _225  and  _227
REMARK   95  A    between atoms: _227  and  _228
REMARK   96  A    between atoms: _227  and  _230
REMARK   97  A    between atoms: _230  and  _231
REMARK   98  A    between atoms: _234  and  _236
REMARK   99  A    between atoms: _236  and  _237
REMARK  100  A    between atoms: _239  and  _241
REMARK  101  A    between atoms: _241  and  _242
REMARK  102  A    between atoms: _241  and  _244
REMARK  103  A    between atoms: _244  and  _245
REMARK  104  A    between atoms: _245  and  _246
REMARK  105  A    between atoms: _246  and  _247
REMARK  106  A    between atoms: _256  and  _258
REMARK  107  A    between atoms: _258  and  _259
REMARK  108  A    between atoms: _258  and  _261
REMARK  109  A    between atoms: _261  and  _262
REMARK  110  A    between atoms: _267  and  _269
REMARK  111  A    between atoms: _269  and  _270
REMARK  112  A    between atoms: _269  and  _272
REMARK  113  A    between atoms: _272  and  _273
REMARK  114  A    between atoms: _273  and  _274
REMARK  115  A    between atoms: _274  and  _275
REMARK  116  A    between atoms: _284  and  _286
REMARK  117  A    between atoms: _286  and  _287
REMARK  118  A    between atoms: _286  and  _289
REMARK  119  A    between atoms: _289  and  _290
REMARK  120  A    between atoms: _293  and  _295
REMARK  121  A    between atoms: _295  and  _296
REMARK  122  A    between atoms: _295  and  _298
REMARK  123  A    between atoms: _298  and  _299
REMARK  124  A    between atoms: _302  and  _304
REMARK  125  A    between atoms: _304  and  _305
REMARK  126  A    between atoms: _304  and  _307
REMARK  127  A    between atoms: _307  and  _308
REMARK  128  A    between atoms: _311  and  _313
REMARK  129  A    between atoms: _313  and  _314
REMARK  130  A    between atoms: _313  and  _316
REMARK  131  A    between atoms: _316  and  _317
REMARK  132  A    between atoms: _320  and  _322
REMARK  133  A    between atoms: _322  and  _323
REMARK  134  A    between atoms: _322  and  _325
REMARK  135  A    between atoms: _325  and  _326
REMARK  136  A    between atoms: _329  and  _331
REMARK  137  A    between atoms: _331  and  _332
REMARK  138  A    between atoms: _334  and  _336
REMARK  139  A    between atoms: _336  and  _337
REMARK  140  A    between atoms: _340  and  _342
REMARK  141  A    between atoms: _342  and  _343
REMARK  142  A    between atoms: _342  and  _345
REMARK  143  A    between atoms: _345  and  _346
REMARK  144  A    between atoms: _349  and  _351
REMARK  145  A    between atoms: _351  and  _352
REMARK  146  A    between atoms: _351  and  _354
REMARK  147  A    between atoms: _354  and  _355
REMARK  148  A    between atoms: _358  and  _360
REMARK  149  A    between atoms: _360  and  _361
REMARK  150  A    between atoms: _360  and  _363
REMARK  151  A    between atoms: _363  and  _364
REMARK  152  A    between atoms: _367  and  _369
REMARK  153  A    between atoms: _369  and  _370
REMARK  154  A    between atoms: _369  and  _372
REMARK  155  A    between atoms: _375  and  _377
REMARK  156  A    between atoms: _377  and  _378
REMARK  157  A    between atoms: _377  and  _380
REMARK  158  A    between atoms: _380  and  _381
REMARK  159  A    between atoms: _381  and  _382
REMARK  160  A    between atoms: _382  and  _383
REMARK  161  A    between atoms: _383  and  _384
REMARK  162  A    between atoms: _388  and  _390
REMARK  163  A    between atoms: _390  and  _391
REMARK  164  A    between atoms: _390  and  _393
REMARK  165  A    between atoms: _393  and  _394
REMARK  166  A    between atoms: _394  and  _395
REMARK  167  A    between atoms: _397  and  _399
REMARK  168  A    between atoms: _399  and  _400
REMARK  169  A    between atoms: _399  and  _402
REMARK  170  A    between atoms: _402  and  _403
REMARK  171  A    between atoms: _406  and  _408
REMARK  172  A    between atoms: _408  and  _409
REMARK  173  A    between atoms: _411  and  _413
REMARK  174  A    between atoms: _413  and  _414
REMARK  175  A    between atoms: _416  and  _418
REMARK  176  A    between atoms: _418  and  _419
REMARK  177  A    between atoms: _418  and  _421
REMARK  178  A    between atoms: _421  and  _422
REMARK  179  A    between atoms: _425  and  _427
REMARK  180  A    between atoms: _427  and  _428
REMARK  181  A    between atoms: _430  and  _432
REMARK  182  A    between atoms: _432  and  _433
REMARK  183  A    between atoms: _435  and  _437
REMARK  184  A    between atoms: _437  and  _438
REMARK  185  A    between atoms: _437  and  _440
REMARK  186  A    between atoms: _440  and  _441
REMARK  187  A    between atoms: _447  and  _449
REMARK  188  A    between atoms: _449  and  _450
REMARK  189  A    between atoms: _449  and  _452
REMARK  190  A    between atoms: _452  and  _453
REMARK  191  A    between atoms: _456  and  _458
REMARK  192  A    between atoms: _458  and  _459
REMARK  193  A    between atoms: _458  and  _461
REMARK  194  A    between atoms: _464  and  _466
REMARK  195  A    between atoms: _466  and  _467
REMARK  196  A    between atoms: _466  and  _469
REMARK  197  A    between atoms: _469  and  _470
REMARK  198  A    between atoms: _473  and  _475
REMARK  199  A    between atoms: _475  and  _476
REMARK  200  A    between atoms: _479  and  _480
REMARK  201  A    between atoms: _485  and  _487
REMARK  202  A    between atoms: _487  and  _488
REMARK  203  A    between atoms: _487  and  _490
REMARK  204  A    between atoms: _490  and  _491
REMARK  205  A    between atoms: _495  and  _496
REMARK  206  A    between atoms: _501  and  _503
REMARK  207  A    between atoms: _503  and  _504
REMARK  208  A    between atoms: _503  and  _506
REMARK  209  A    between atoms: _509  and  _511
REMARK  210  A    between atoms: _511  and  _512
REMARK  211  A    between atoms: _511  and  _514
REMARK  212  A    between atoms: _514  and  _515
REMARK  213  A    between atoms: _520  and  _522
REMARK  214  A    between atoms: _522  and  _523
REMARK  215  A    between atoms: _522  and  _525
REMARK  216  A    between atoms: _525  and  _526
REMARK  217  A    between atoms: _529  and  _531
REMARK  218  A    between atoms: _531  and  _532
REMARK  219  A    between atoms: _531  and  _534
REMARK  220  A    between atoms: _534  and  _535
REMARK  221  A    between atoms: _538  and  _540
REMARK  222  A    between atoms: _540  and  _541
REMARK  223  A    between atoms: _543  and  _545
REMARK  224  A    between atoms: _545  and  _546
REMARK  225  A    between atoms: _545  and  _548
REMARK  226  A    between atoms: _548  and  _549
REMARK  227  A    between atoms: _549  and  _550
REMARK  228  A    between atoms: _550  and  _551
REMARK  229  A    between atoms: _560  and  _562
REMARK  230  A    between atoms: _562  and  _563
REMARK  231  A    between atoms: _562  and  _565
REMARK  232  A    between atoms: _565  and  _566
REMARK                            x       y       z     vdW  Elec       q    Type
REMARK                         _______ _______ _______ _____ _____    ______ ____
ROOT
ATOM      1  O   HOH     1       4.078  19.427  22.593  0.00  0.00    +0.000 OA
ENDROOT
TORSDOF 0
REMARK  Name = ../refined-set-2016/4zls/4zls_pocket.pdb
REMARK  232 active torsions:
REMARK  status: ('A' for Active; 'I' for Inactive)
REMARK    1  A    between atoms: _1  and  _3
REMARK    2  A    between atoms: _3  and  _4
REMARK    3  A    between atoms: _3  and  _6
REMARK    4  A    between atoms: _6  and  _7
REMARK    5  A    between atoms: _7  and  _8
REMARK    6  A    between atoms: _8  and  _9
REMARK    7  A    between atoms: _18  and  _20
REMARK    8  A    between atoms: _20  and  _21
REMARK    9  A    between atoms: _20  and  _23
REMARK   10  A    between atoms: _23  and  _24
REMARK   11  A    between atoms: _27  and  _29
REMARK   12  A    between atoms: _29  and  _30
REMARK   13  A    between atoms: _29  and  _32
REMARK   14  A    between atoms: _32  and  _33
REMARK   15  A    between atoms: _36  and  _38
REMARK   16  A    between atoms: _38  and  _39
REMARK   17  A    between atoms: _38  and  _41
REMARK   18  A    between atoms: _41  and  _42
REMARK   19  A    between atoms: _45  and  _47
REMARK   20  A    between atoms: _47  and  _48
REMARK   21  A    between atoms: _47  and  _50
REMARK   22  A    between atoms: _50  and  _51
REMARK   23  A    between atoms: _54  and  _56
REMARK   24  A    between atoms: _56  and  _57
REMARK   25  A    between atoms: _59  and  _61
REMARK   26  A    between atoms: _61  and  _62
REMARK   27  A    between atoms: _65  and  _67
REMARK   28  A    between atoms: _67  and  _68
REMARK   29  A    between atoms: _67  and  _70
REMARK   30  A    between atoms: _70  and  _71
REMARK   31  A    between atoms: _74  and  _76
REMARK   32  A    between atoms: _76  and  _77
REMARK   33  A    between atoms: _76  and  _79
REMARK   34  A    between atoms: _79  and  _80
REMARK   35  A    between atoms: _83  and  _85
REMARK   36  A    between atoms: _85  and  _86
REMARK   37  A    between atoms: _85  and  _88
REMARK   38  A    between atoms: _88  and  _89
REMARK   39  A    between atoms: _92  and  _94
REMARK   40  A    between atoms: _94  and  _95
REMARK   41  A    between atoms: _94  and  _97
REMARK   42  A    between atoms: _100  and  _102
REMARK   43  A    between atoms: _102  and  _103
REMARK   44  A    between atoms: _102  and  _105
REMARK   45  A    between atoms: _105  and  _106
REMARK   46  A    between atoms: _106  and  _107
REMARK   47  A    between atoms: _107  and  _108
REMARK   48  A    between atoms: _108  and  _109
REMARK   49  A    between atoms: _113  and  _115
REMARK   50  A    between atoms: _115  and  _116
REMARK   51  A    between atoms: _115  and  _118
REMARK   52  A    between atoms: _118  and  _119
REMARK   53  A    between atoms: _119  and  _120
REMARK   54  A    between atoms: _122  and  _124
REMARK   55  A    between atoms: _124  and  _125
REMARK   56  A    between atoms: _124  and  _127
REMARK   57  A    between atoms: _127  and  _128
REMARK   58  A    between atoms: _131  and  _133
REMARK   59  A    between atoms: _133  and  _134
REMARK   60  A    between atoms: _136  and  _138
REMARK   61  A    between atoms: _138  and  _139
REMARK   62  A    between atoms: _141  and  _143
REMARK   63  A    between atoms: _143  and  _144
REMARK   64  A    between atoms: _143  and  _146
REMARK   65  A    between atoms: _146  and  _147
REMARK   66  A    between atoms: _150  and  _152
REMARK   67  A    between atoms: _152  and  _153
REMARK   68  A    between atoms: _155  and  _157
REMARK   69  A    between atoms: _157  and  _158
REMARK   70  A    between atoms: _160  and  _162
REMARK   71  A    between atoms: _162  and  _163
REMARK   72  A    between atoms: _162  and  _165
REMARK   73  A    between atoms: _165  and  _166
REMARK   74  A    between atoms: _172  and  _174
REMARK   75  A    between atoms: _174  and  _175
REMARK   76  A    between atoms: _174  and  _177
REMARK   77  A    between atoms: _177  and  _178
REMARK   78  A    between atoms: _181  and  _183
REMARK   79  A    between atoms: _183  and  _184
REMARK   80  A    between atoms: _183  and  _186
REMARK   81  A    between atoms: _186  and  _187
REMARK   82  A    between atoms: _190  and  _192
REMARK   83  A    between atoms: _192  and  _193
REMARK   84  A    between atoms: _192  and  _195
REMARK   85  A    between atoms: _195  and  _196
REMARK   86  A    between atoms: _200  and  _201
REMARK   87  A    between atoms: _206  and  _208
REMARK   88  A    between atoms: _208  and  _209
REMARK   89  A    between atoms: _208  and  _211
REMARK   90  A    between atoms: _214  and  _216
REMARK   91  A    between atoms: _216  and  _217
REMARK   92  A    between atoms: _216  and  _219
REMARK   93  A    between atoms: _219  and  _220
REMARK   94  A    between atoms: _225  and  _227
REMARK   95  A    between atoms: _227  and  _228
REMARK   96  A    between atoms: _227  and  _230
REMARK   97  A    between atoms: _230  and  _231
REMARK   98  A    between atoms: _234  and  _236
REMARK   99  A    between atoms: _236  and  _237
REMARK  100  A    between atoms: _239  and  _241
REMARK  101  A    between atoms: _241  and  _242
REMARK  102  A    between atoms: _241  and  _244
REMARK  103  A    between atoms: _244  and  _245
REMARK  104  A    between atoms: _245  and  _246
REMARK  105  A    between atoms: _246  and  _247
REMARK  106  A    between atoms: _256  and  _258
REMARK  107  A    between atoms: _258  and  _259
REMARK  108  A    between atoms: _258  and  _261
REMARK  109  A    between atoms: _261  and  _262
REMARK  110  A    between atoms: _267  and  _269
REMARK  111  A    between atoms: _269  and  _270
REMARK  112  A    between atoms: _269  and  _272
REMARK  113  A    between atoms: _272  and  _273
REMARK  114  A    between atoms: _273  and  _274
REMARK  115  A    between atoms: _274  and  _275
REMARK  116  A    between atoms: _284  and  _286
REMARK  117  A    between atoms: _286  and  _287
REMARK  118  A    between atoms: _286  and  _289
REMARK  119  A    between atoms: _289  and  _290
REMARK  120  A    between atoms: _293  and  _295
REMARK  121  A    between atoms: _295  and  _296
REMARK  122  A    between atoms: _295  and  _298
REMARK  123  A    between atoms: _298  and  _299
REMARK  124  A    between atoms: _302  and  _304
REMARK  125  A    between atoms: _304  and  _305
REMARK  126  A    between atoms: _304  and  _307
REMARK  127  A    between atoms: _307  and  _308
REMARK  128  A    between atoms: _311  and  _313
REMARK  129  A    between atoms: _313  and  _314
REMARK  130  A    between atoms: _313  and  _316
REMARK  131  A    between atoms: _316  and  _317
REMARK  132  A    between atoms: _320  and  _322
REMARK  133  A    between atoms: _322  and  _323
REMARK  134  A    between atoms: _322  and  _325
REMARK  135  A    between atoms: _325  and  _326
REMARK  136  A    between atoms: _329  and  _331
REMARK  137  A    between atoms: _331  and  _332
REMARK  138  A    between atoms: _334  and  _336
REMARK  139  A    between atoms: _336  and  _337
REMARK  140  A    between atoms: _340  and  _342
REMARK  141  A    between atoms: _342  and  _343
REMARK  142  A    between atoms: _342  and  _345
REMARK  143  A    between atoms: _345  and  _346
REMARK  144  A    between atoms: _349  and  _351
REMARK  145  A    between atoms: _351  and  _352
REMARK  146  A    between atoms: _351  and  _354
REMARK  147  A    between atoms: _354  and  _355
REMARK  148  A    between atoms: _358  and  _360
REMARK  149  A    between atoms: _360  and  _361
REMARK  150  A    between atoms: _360  and  _363
REMARK  151  A    between atoms: _363  and  _364
REMARK  152  A    between atoms: _367  and  _369
REMARK  153  A    between atoms: _369  and  _370
REMARK  154  A    between atoms: _369  and  _372
REMARK  155  A    between atoms: _375  and  _377
REMARK  156  A    between atoms: _377  and  _378
REMARK  157  A    between atoms: _377  and  _380
REMARK  158  A    between atoms: _380  and  _381
REMARK  159  A    between atoms: _381  and  _382
REMARK  160  A    between atoms: _382  and  _383
REMARK  161  A    between atoms: _383  and  _384
REMARK  162  A    between atoms: _388  and  _390
REMARK  163  A    between atoms: _390  and  _391
REMARK  164  A    between atoms: _390  and  _393
REMARK  165  A    between atoms: _393  and  _394
REMARK  166  A    between atoms: _394  and  _395
REMARK  167  A    between atoms: _397  and  _399
REMARK  168  A    between atoms: _399  and  _400
REMARK  169  A    between atoms: _399  and  _402
REMARK  170  A    between atoms: _402  and  _403
REMARK  171  A    between atoms: _406  and  _408
REMARK  172  A    between atoms: _408  and  _409
REMARK  173  A    between atoms: _411  and  _413
REMARK  174  A    between atoms: _413  and  _414
REMARK  175  A    between atoms: _416  and  _418
REMARK  176  A    between atoms: _418  and  _419
REMARK  177  A    between atoms: _418  and  _421
REMARK  178  A    between atoms: _421  and  _422
REMARK  179  A    between atoms: _425  and  _427
REMARK  180  A    between atoms: _427  and  _428
REMARK  181  A    between atoms: _430  and  _432
REMARK  182  A    between atoms: _432  and  _433
REMARK  183  A    between atoms: _435  and  _437
REMARK  184  A    between atoms: _437  and  _438
REMARK  185  A    between atoms: _437  and  _440
REMARK  186  A    between atoms: _440  and  _441
REMARK  187  A    between atoms: _447  and  _449
REMARK  188  A    between atoms: _449  and  _450
REMARK  189  A    between atoms: _449  and  _452
REMARK  190  A    between atoms: _452  and  _453
REMARK  191  A    between atoms: _456  and  _458
REMARK  192  A    between atoms: _458  and  _459
REMARK  193  A    between atoms: _458  and  _461
REMARK  194  A    between atoms: _464  and  _466
REMARK  195  A    between atoms: _466  and  _467
REMARK  196  A    between atoms: _466  and  _469
REMARK  197  A    between atoms: _469  and  _470
REMARK  198  A    between atoms: _473  and  _475
REMARK  199  A    between atoms: _475  and  _476
REMARK  200  A    between atoms: _479  and  _480
REMARK  201  A    between atoms: _485  and  _487
REMARK  202  A    between atoms: _487  and  _488
REMARK  203  A    between atoms: _487  and  _490
REMARK  204  A    between atoms: _490  and  _491
REMARK  205  A    between atoms: _495  and  _496
REMARK  206  A    between atoms: _501  and  _503
REMARK  207  A    between atoms: _503  and  _504
REMARK  208  A    between atoms: _503  and  _506
REMARK  209  A    between atoms: _509  and  _511
REMARK  210  A    between atoms: _511  and  _512
REMARK  211  A    between atoms: _511  and  _514
REMARK  212  A    between atoms: _514  and  _515
REMARK  213  A    between atoms: _520  and  _522
REMARK  214  A    between atoms: _522  and  _523
REMARK  215  A    between atoms: _522  and  _525
REMARK  216  A    between atoms: _525  and  _526
REMARK  217  A    between atoms: _529  and  _531
REMARK  218  A    between atoms: _531  and  _532
REMARK  219  A    between atoms: _531  and  _534
REMARK  220  A    between atoms: _534  and  _535
REMARK  221  A    between atoms: _538  and  _540
REMARK  222  A    between atoms: _540  and  _541
REMARK  223  A    between atoms: _543  and  _545
REMARK  224  A    between atoms: _545  and  _546
REMARK  225  A    between atoms: _545  and  _548
REMARK  226  A    between atoms: _548  and  _549
REMARK  227  A    between atoms: _549  and  _550
REMARK  228  A    between atoms: _550  and  _551
REMARK  229  A    between atoms: _560  and  _562
REMARK  230  A    between atoms: _562  and  _563
REMARK  231  A    between atoms: _562  and  _565
REMARK  232  A    between atoms: _565  and  _566
REMARK                            x       y       z     vdW  Elec       q    Type
REMARK                         _______ _______ _______ _____ _____    ______ ____
ROOT
ATOM      1  O   HOH     1       7.373  24.254  18.252  0.00  0.00    +0.000 OA
ENDROOT
TORSDOF 0
REMARK  Name = ../refined-set-2016/4zls/4zls_pocket.pdb
REMARK  232 active torsions:
REMARK  status: ('A' for Active; 'I' for Inactive)
REMARK    1  A    between atoms: _1  and  _3
REMARK    2  A    between atoms: _3  and  _4
REMARK    3  A    between atoms: _3  and  _6
REMARK    4  A    between atoms: _6  and  _7
REMARK    5  A    between atoms: _7  and  _8
REMARK    6  A    between atoms: _8  and  _9
REMARK    7  A    between atoms: _18  and  _20
REMARK    8  A    between atoms: _20  and  _21
REMARK    9  A    between atoms: _20  and  _23
REMARK   10  A    between atoms: _23  and  _24
REMARK   11  A    between atoms: _27  and  _29
REMARK   12  A    between atoms: _29  and  _30
REMARK   13  A    between atoms: _29  and  _32
REMARK   14  A    between atoms: _32  and  _33
REMARK   15  A    between atoms: _36  and  _38
REMARK   16  A    between atoms: _38  and  _39
REMARK   17  A    between atoms: _38  and  _41
REMARK   18  A    between atoms: _41  and  _42
REMARK   19  A    between atoms: _45  and  _47
REMARK   20  A    between atoms: _47  and  _48
REMARK   21  A    between atoms: _47  and  _50
REMARK   22  A    between atoms: _50  and  _51
REMARK   23  A    between atoms: _54  and  _56
REMARK   24  A    between atoms: _56  and  _57
REMARK   25  A    between atoms: _59  and  _61
REMARK   26  A    between atoms: _61  and  _62
REMARK   27  A    between atoms: _65  and  _67
REMARK   28  A    between atoms: _67  and  _68
REMARK   29  A    between atoms: _67  and  _70
REMARK   30  A    between atoms: _70  and  _71
REMARK   31  A    between atoms: _74  and  _76
REMARK   32  A    between atoms: _76  and  _77
REMARK   33  A    between atoms: _76  and  _79
REMARK   34  A    between atoms: _79  and  _80
REMARK   35  A    between atoms: _83  and  _85
REMARK   36  A    between atoms: _85  and  _86
REMARK   37  A    between atoms: _85  and  _88
REMARK   38  A    between atoms: _88  and  _89
REMARK   39  A    between atoms: _92  and  _94
REMARK   40  A    between atoms: _94  and  _95
REMARK   41  A    between atoms: _94  and  _97
REMARK   42  A    between atoms: _100  and  _102
REMARK   43  A    between atoms: _102  and  _103
REMARK   44  A    between atoms: _102  and  _105
REMARK   45  A    between atoms: _105  and  _106
REMARK   46  A    between atoms: _106  and  _107
REMARK   47  A    between atoms: _107  and  _108
REMARK   48  A    between atoms: _108  and  _109
REMARK   49  A    between atoms: _113  and  _115
REMARK   50  A    between atoms: _115  and  _116
REMARK   51  A    between atoms: _115  and  _118
REMARK   52  A    between atoms: _118  and  _119
REMARK   53  A    between atoms: _119  and  _120
REMARK   54  A    between atoms: _122  and  _124
REMARK   55  A    between atoms: _124  and  _125
REMARK   56  A    between atoms: _124  and  _127
REMARK   57  A    between atoms: _127  and  _128
REMARK   58  A    between atoms: _131  and  _133
REMARK   59  A    between atoms: _133  and  _134
REMARK   60  A    between atoms: _136  and  _138
REMARK   61  A    between atoms: _138  and  _139
REMARK   62  A    between atoms: _141  and  _143
REMARK   63  A    between atoms: _143  and  _144
REMARK   64  A    between atoms: _143  and  _146
REMARK   65  A    between atoms: _146  and  _147
REMARK   66  A    between atoms: _150  and  _152
REMARK   67  A    between atoms: _152  and  _153
REMARK   68  A    between atoms: _155  and  _157
REMARK   69  A    between atoms: _157  and  _158
REMARK   70  A    between atoms: _160  and  _162
REMARK   71  A    between atoms: _162  and  _163
REMARK   72  A    between atoms: _162  and  _165
REMARK   73  A    between atoms: _165  and  _166
REMARK   74  A    between atoms: _172  and  _174
REMARK   75  A    between atoms: _174  and  _175
REMARK   76  A    between atoms: _174  and  _177
REMARK   77  A    between atoms: _177  and  _178
REMARK   78  A    between atoms: _181  and  _183
REMARK   79  A    between atoms: _183  and  _184
REMARK   80  A    between atoms: _183  and  _186
REMARK   81  A    between atoms: _186  and  _187
REMARK   82  A    between atoms: _190  and  _192
REMARK   83  A    between atoms: _192  and  _193
REMARK   84  A    between atoms: _192  and  _195
REMARK   85  A    between atoms: _195  and  _196
REMARK   86  A    between atoms: _200  and  _201
REMARK   87  A    between atoms: _206  and  _208
REMARK   88  A    between atoms: _208  and  _209
REMARK   89  A    between atoms: _208  and  _211
REMARK   90  A    between atoms: _214  and  _216
REMARK   91  A    between atoms: _216  and  _217
REMARK   92  A    between atoms: _216  and  _219
REMARK   93  A    between atoms: _219  and  _220
REMARK   94  A    between atoms: _225  and  _227
REMARK   95  A    between atoms: _227  and  _228
REMARK   96  A    between atoms: _227  and  _230
REMARK   97  A    between atoms: _230  and  _231
REMARK   98  A    between atoms: _234  and  _236
REMARK   99  A    between atoms: _236  and  _237
REMARK  100  A    between atoms: _239  and  _241
REMARK  101  A    between atoms: _241  and  _242
REMARK  102  A    between atoms: _241  and  _244
REMARK  103  A    between atoms: _244  and  _245
REMARK  104  A    between atoms: _245  and  _246
REMARK  105  A    between atoms: _246  and  _247
REMARK  106  A    between atoms: _256  and  _258
REMARK  107  A    between atoms: _258  and  _259
REMARK  108  A    between atoms: _258  and  _261
REMARK  109  A    between atoms: _261  and  _262
REMARK  110  A    between atoms: _267  and  _269
REMARK  111  A    between atoms: _269  and  _270
REMARK  112  A    between atoms: _269  and  _272
REMARK  113  A    between atoms: _272  and  _273
REMARK  114  A    between atoms: _273  and  _274
REMARK  115  A    between atoms: _274  and  _275
REMARK  116  A    between atoms: _284  and  _286
REMARK  117  A    between atoms: _286  and  _287
REMARK  118  A    between atoms: _286  and  _289
REMARK  119  A    between atoms: _289  and  _290
REMARK  120  A    between atoms: _293  and  _295
REMARK  121  A    between atoms: _295  and  _296
REMARK  122  A    between atoms: _295  and  _298
REMARK  123  A    between atoms: _298  and  _299
REMARK  124  A    between atoms: _302  and  _304
REMARK  125  A    between atoms: _304  and  _305
REMARK  126  A    between atoms: _304  and  _307
REMARK  127  A    between atoms: _307  and  _308
REMARK  128  A    between atoms: _311  and  _313
REMARK  129  A    between atoms: _313  and  _314
REMARK  130  A    between atoms: _313  and  _316
REMARK  131  A    between atoms: _316  and  _317
REMARK  132  A    between atoms: _320  and  _322
REMARK  133  A    between atoms: _322  and  _323
REMARK  134  A    between atoms: _322  and  _325
REMARK  135  A    between atoms: _325  and  _326
REMARK  136  A    between atoms: _329  and  _331
REMARK  137  A    between atoms: _331  and  _332
REMARK  138  A    between atoms: _334  and  _336
REMARK  139  A    between atoms: _336  and  _337
REMARK  140  A    between atoms: _340  and  _342
REMARK  141  A    between atoms: _342  and  _343
REMARK  142  A    between atoms: _342  and  _345
REMARK  143  A    between atoms: _345  and  _346
REMARK  144  A    between atoms: _349  and  _351
REMARK  145  A    between atoms: _351  and  _352
REMARK  146  A    between atoms: _351  and  _354
REMARK  147  A    between atoms: _354  and  _355
REMARK  148  A    between atoms: _358  and  _360
REMARK  149  A    between atoms: _360  and  _361
REMARK  150  A    between atoms: _360  and  _363
REMARK  151  A    between atoms: _363  and  _364
REMARK  152  A    between atoms: _367  and  _369
REMARK  153  A    between atoms: _369  and  _370
REMARK  154  A    between atoms: _369  and  _372
REMARK  155  A    between atoms: _375  and  _377
REMARK  156  A    between atoms: _377  and  _378
REMARK  157  A    between atoms: _377  and  _380
REMARK  158  A    between atoms: _380  and  _381
REMARK  159  A    between atoms: _381  and  _382
REMARK  160  A    between atoms: _382  and  _383
REMARK  161  A    between atoms: _383  and  _384
REMARK  162  A    between atoms: _388  and  _390
REMARK  163  A    between atoms: _390  and  _391
REMARK  164  A    between atoms: _390  and  _393
REMARK  165  A    between atoms: _393  and  _394
REMARK  166  A    between atoms: _394  and  _395
REMARK  167  A    between atoms: _397  and  _399
REMARK  168  A    between atoms: _399  and  _400
REMARK  169  A    between atoms: _399  and  _402
REMARK  170  A    between atoms: _402  and  _403
REMARK  171  A    between atoms: _406  and  _408
REMARK  172  A    between atoms: _408  and  _409
REMARK  173  A    between atoms: _411  and  _413
REMARK  174  A    between atoms: _413  and  _414
REMARK  175  A    between atoms: _416  and  _418
REMARK  176  A    between atoms: _418  and  _419
REMARK  177  A    between atoms: _418  and  _421
REMARK  178  A    between atoms: _421  and  _422
REMARK  179  A    between atoms: _425  and  _427
REMARK  180  A    between atoms: _427  and  _428
REMARK  181  A    between atoms: _430  and  _432
REMARK  182  A    between atoms: _432  and  _433
REMARK  183  A    between atoms: _435  and  _437
REMARK  184  A    between atoms: _437  and  _438
REMARK  185  A    between atoms: _437  and  _440
REMARK  186  A    between atoms: _440  and  _441
REMARK  187  A    between atoms: _447  and  _449
REMARK  188  A    between atoms: _449  and  _450
REMARK  189  A    between atoms: _449  and  _452
REMARK  190  A    between atoms: _452  and  _453
REMARK  191  A    between atoms: _456  and  _458
REMARK  192  A    between atoms: _458  and  _459
REMARK  193  A    between atoms: _458  and  _461
REMARK  194  A    between atoms: _464  and  _466
REMARK  195  A    between atoms: _466  and  _467
REMARK  196  A    between atoms: _466  and  _469
REMARK  197  A    between atoms: _469  and  _470
REMARK  198  A    between atoms: _473  and  _475
REMARK  199  A    between atoms: _475  and  _476
REMARK  200  A    between atoms: _479  and  _480
REMARK  201  A    between atoms: _485  and  _487
REMARK  202  A    between atoms: _487  and  _488
REMARK  203  A    between atoms: _487  and  _490
REMARK  204  A    between atoms: _490  and  _491
REMARK  205  A    between atoms: _495  and  _496
REMARK  206  A    between atoms: _501  and  _503
REMARK  207  A    between atoms: _503  and  _504
REMARK  208  A    between atoms: _503  and  _506
REMARK  209  A    between atoms: _509  and  _511
REMARK  210  A    between atoms: _511  and  _512
REMARK  211  A    between atoms: _511  and  _514
REMARK  212  A    between atoms: _514  and  _515
REMARK  213  A    between atoms: _520  and  _522
REMARK  214  A    between atoms: _522  and  _523
REMARK  215  A    between atoms: _522  and  _525
REMARK  216  A    between atoms: _525  and  _526
REMARK  217  A    between atoms: _529  and  _531
REMARK  218  A    between atoms: _531  and  _532
REMARK  219  A    between atoms: _531  and  _534
REMARK  220  A    between atoms: _534  and  _535
REMARK  221  A    between atoms: _538  and  _540
REMARK  222  A    between atoms: _540  and  _541
REMARK  223  A    between atoms: _543  and  _545
REMARK  224  A    between atoms: _545  and  _546
REMARK  225  A    between atoms: _545  and  _548
REMARK  226  A    between atoms: _548  and  _549
REMARK  227  A    between atoms: _549  and  _550
REMARK  228  A    between atoms: _550  and  _551
REMARK  229  A    between atoms: _560  and  _562
REMARK  230  A    between atoms: _562  and  _563
REMARK  231  A    between atoms: _562  and  _565
REMARK  232  A    between atoms: _565  and  _566
REMARK                            x       y       z     vdW  Elec       q    Type
REMARK                         _______ _______ _______ _____ _____    ______ ____
ROOT
ATOM      1  O   HOH     1       8.736  22.457  16.641  0.00  0.00    +0.000 OA
ENDROOT
TORSDOF 0
REMARK  Name = ../refined-set-2016/4zls/4zls_pocket.pdb
REMARK  232 active torsions:
REMARK  status: ('A' for Active; 'I' for Inactive)
REMARK    1  A    between atoms: _1  and  _3
REMARK    2  A    between atoms: _3  and  _4
REMARK    3  A    between atoms: _3  and  _6
REMARK    4  A    between atoms: _6  and  _7
REMARK    5  A    between atoms: _7  and  _8
REMARK    6  A    between atoms: _8  and  _9
REMARK    7  A    between atoms: _18  and  _20
REMARK    8  A    between atoms: _20  and  _21
REMARK    9  A    between atoms: _20  and  _23
REMARK   10  A    between atoms: _23  and  _24
REMARK   11  A    between atoms: _27  and  _29
REMARK   12  A    between atoms: _29  and  _30
REMARK   13  A    between atoms: _29  and  _32
REMARK   14  A    between atoms: _32  and  _33
REMARK   15  A    between atoms: _36  and  _38
REMARK   16  A    between atoms: _38  and  _39
REMARK   17  A    between atoms: _38  and  _41
REMARK   18  A    between atoms: _41  and  _42
REMARK   19  A    between atoms: _45  and  _47
REMARK   20  A    between atoms: _47  and  _48
REMARK   21  A    between atoms: _47  and  _50
REMARK   22  A    between atoms: _50  and  _51
REMARK   23  A    between atoms: _54  and  _56
REMARK   24  A    between atoms: _56  and  _57
REMARK   25  A    between atoms: _59  and  _61
REMARK   26  A    between atoms: _61  and  _62
REMARK   27  A    between atoms: _65  and  _67
REMARK   28  A    between atoms: _67  and  _68
REMARK   29  A    between atoms: _67  and  _70
REMARK   30  A    between atoms: _70  and  _71
REMARK   31  A    between atoms: _74  and  _76
REMARK   32  A    between atoms: _76  and  _77
REMARK   33  A    between atoms: _76  and  _79
REMARK   34  A    between atoms: _79  and  _80
REMARK   35  A    between atoms: _83  and  _85
REMARK   36  A    between atoms: _85  and  _86
REMARK   37  A    between atoms: _85  and  _88
REMARK   38  A    between atoms: _88  and  _89
REMARK   39  A    between atoms: _92  and  _94
REMARK   40  A    between atoms: _94  and  _95
REMARK   41  A    between atoms: _94  and  _97
REMARK   42  A    between atoms: _100  and  _102
REMARK   43  A    between atoms: _102  and  _103
REMARK   44  A    between atoms: _102  and  _105
REMARK   45  A    between atoms: _105  and  _106
REMARK   46  A    between atoms: _106  and  _107
REMARK   47  A    between atoms: _107  and  _108
REMARK   48  A    between atoms: _108  and  _109
REMARK   49  A    between atoms: _113  and  _115
REMARK   50  A    between atoms: _115  and  _116
REMARK   51  A    between atoms: _115  and  _118
REMARK   52  A    between atoms: _118  and  _119
REMARK   53  A    between atoms: _119  and  _120
REMARK   54  A    between atoms: _122  and  _124
REMARK   55  A    between atoms: _124  and  _125
REMARK   56  A    between atoms: _124  and  _127
REMARK   57  A    between atoms: _127  and  _128
REMARK   58  A    between atoms: _131  and  _133
REMARK   59  A    between atoms: _133  and  _134
REMARK   60  A    between atoms: _136  and  _138
REMARK   61  A    between atoms: _138  and  _139
REMARK   62  A    between atoms: _141  and  _143
REMARK   63  A    between atoms: _143  and  _144
REMARK   64  A    between atoms: _143  and  _146
REMARK   65  A    between atoms: _146  and  _147
REMARK   66  A    between atoms: _150  and  _152
REMARK   67  A    between atoms: _152  and  _153
REMARK   68  A    between atoms: _155  and  _157
REMARK   69  A    between atoms: _157  and  _158
REMARK   70  A    between atoms: _160  and  _162
REMARK   71  A    between atoms: _162  and  _163
REMARK   72  A    between atoms: _162  and  _165
REMARK   73  A    between atoms: _165  and  _166
REMARK   74  A    between atoms: _172  and  _174
REMARK   75  A    between atoms: _174  and  _175
REMARK   76  A    between atoms: _174  and  _177
REMARK   77  A    between atoms: _177  and  _178
REMARK   78  A    between atoms: _181  and  _183
REMARK   79  A    between atoms: _183  and  _184
REMARK   80  A    between atoms: _183  and  _186
REMARK   81  A    between atoms: _186  and  _187
REMARK   82  A    between atoms: _190  and  _192
REMARK   83  A    between atoms: _192  and  _193
REMARK   84  A    between atoms: _192  and  _195
REMARK   85  A    between atoms: _195  and  _196
REMARK   86  A    between atoms: _200  and  _201
REMARK   87  A    between atoms: _206  and  _208
REMARK   88  A    between atoms: _208  and  _209
REMARK   89  A    between atoms: _208  and  _211
REMARK   90  A    between atoms: _214  and  _216
REMARK   91  A    between atoms: _216  and  _217
REMARK   92  A    between atoms: _216  and  _219
REMARK   93  A    between atoms: _219  and  _220
REMARK   94  A    between atoms: _225  and  _227
REMARK   95  A    between atoms: _227  and  _228
REMARK   96  A    between atoms: _227  and  _230
REMARK   97  A    between atoms: _230  and  _231
REMARK   98  A    between atoms: _234  and  _236
REMARK   99  A    between atoms: _236  and  _237
REMARK  100  A    between atoms: _239  and  _241
REMARK  101  A    between atoms: _241  and  _242
REMARK  102  A    between atoms: _241  and  _244
REMARK  103  A    between atoms: _244  and  _245
REMARK  104  A    between atoms: _245  and  _246
REMARK  105  A    between atoms: _246  and  _247
REMARK  106  A    between atoms: _256  and  _258
REMARK  107  A    between atoms: _258  and  _259
REMARK  108  A    between atoms: _258  and  _261
REMARK  109  A    between atoms: _261  and  _262
REMARK  110  A    between atoms: _267  and  _269
REMARK  111  A    between atoms: _269  and  _270
REMARK  112  A    between atoms: _269  and  _272
REMARK  113  A    between atoms: _272  and  _273
REMARK  114  A    between atoms: _273  and  _274
REMARK  115  A    between atoms: _274  and  _275
REMARK  116  A    between atoms: _284  and  _286
REMARK  117  A    between atoms: _286  and  _287
REMARK  118  A    between atoms: _286  and  _289
REMARK  119  A    between atoms: _289  and  _290
REMARK  120  A    between atoms: _293  and  _295
REMARK  121  A    between atoms: _295  and  _296
REMARK  122  A    between atoms: _295  and  _298
REMARK  123  A    between atoms: _298  and  _299
REMARK  124  A    between atoms: _302  and  _304
REMARK  125  A    between atoms: _304  and  _305
REMARK  126  A    between atoms: _304  and  _307
REMARK  127  A    between atoms: _307  and  _308
REMARK  128  A    between atoms: _311  and  _313
REMARK  129  A    between atoms: _313  and  _314
REMARK  130  A    between atoms: _313  and  _316
REMARK  131  A    between atoms: _316  and  _317
REMARK  132  A    between atoms: _320  and  _322
REMARK  133  A    between atoms: _322  and  _323
REMARK  134  A    between atoms: _322  and  _325
REMARK  135  A    between atoms: _325  and  _326
REMARK  136  A    between atoms: _329  and  _331
REMARK  137  A    between atoms: _331  and  _332
REMARK  138  A    between atoms: _334  and  _336
REMARK  139  A    between atoms: _336  and  _337
REMARK  140  A    between atoms: _340  and  _342
REMARK  141  A    between atoms: _342  and  _343
REMARK  142  A    between atoms: _342  and  _345
REMARK  143  A    between atoms: _345  and  _346
REMARK  144  A    between atoms: _349  and  _351
REMARK  145  A    between atoms: _351  and  _352
REMARK  146  A    between atoms: _351  and  _354
REMARK  147  A    between atoms: _354  and  _355
REMARK  148  A    between atoms: _358  and  _360
REMARK  149  A    between atoms: _360  and  _361
REMARK  150  A    between atoms: _360  and  _363
REMARK  151  A    between atoms: _363  and  _364
REMARK  152  A    between atoms: _367  and  _369
REMARK  153  A    between atoms: _369  and  _370
REMARK  154  A    between atoms: _369  and  _372
REMARK  155  A    between atoms: _375  and  _377
REMARK  156  A    between atoms: _377  and  _378
REMARK  157  A    between atoms: _377  and  _380
REMARK  158  A    between atoms: _380  and  _381
REMARK  159  A    between atoms: _381  and  _382
REMARK  160  A    between atoms: _382  and  _383
REMARK  161  A    between atoms: _383  and  _384
REMARK  162  A    between atoms: _388  and  _390
REMARK  163  A    between atoms: _390  and  _391
REMARK  164  A    between atoms: _390  and  _393
REMARK  165  A    between atoms: _393  and  _394
REMARK  166  A    between atoms: _394  and  _395
REMARK  167  A    between atoms: _397  and  _399
REMARK  168  A    between atoms: _399  and  _400
REMARK  169  A    between atoms: _399  and  _402
REMARK  170  A    between atoms: _402  and  _403
REMARK  171  A    between atoms: _406  and  _408
REMARK  172  A    between atoms: _408  and  _409
REMARK  173  A    between atoms: _411  and  _413
REMARK  174  A    between atoms: _413  and  _414
REMARK  175  A    between atoms: _416  and  _418
REMARK  176  A    between atoms: _418  and  _419
REMARK  177  A    between atoms: _418  and  _421
REMARK  178  A    between atoms: _421  and  _422
REMARK  179  A    between atoms: _425  and  _427
REMARK  180  A    between atoms: _427  and  _428
REMARK  181  A    between atoms: _430  and  _432
REMARK  182  A    between atoms: _432  and  _433
REMARK  183  A    between atoms: _435  and  _437
REMARK  184  A    between atoms: _437  and  _438
REMARK  185  A    between atoms: _437  and  _440
REMARK  186  A    between atoms: _440  and  _441
REMARK  187  A    between atoms: _447  and  _449
REMARK  188  A    between atoms: _449  and  _450
REMARK  189  A    between atoms: _449  and  _452
REMARK  190  A    between atoms: _452  and  _453
REMARK  191  A    between atoms: _456  and  _458
REMARK  192  A    between atoms: _458  and  _459
REMARK  193  A    between atoms: _458  and  _461
REMARK  194  A    between atoms: _464  and  _466
REMARK  195  A    between atoms: _466  and  _467
REMARK  196  A    between atoms: _466  and  _469
REMARK  197  A    between atoms: _469  and  _470
REMARK  198  A    between atoms: _473  and  _475
REMARK  199  A    between atoms: _475  and  _476
REMARK  200  A    between atoms: _479  and  _480
REMARK  201  A    between atoms: _485  and  _487
REMARK  202  A    between atoms: _487  and  _488
REMARK  203  A    between atoms: _487  and  _490
REMARK  204  A    between atoms: _490  and  _491
REMARK  205  A    between atoms: _495  and  _496
REMARK  206  A    between atoms: _501  and  _503
REMARK  207  A    between atoms: _503  and  _504
REMARK  208  A    between atoms: _503  and  _506
REMARK  209  A    between atoms: _509  and  _511
REMARK  210  A    between atoms: _511  and  _512
REMARK  211  A    between atoms: _511  and  _514
REMARK  212  A    between atoms: _514  and  _515
REMARK  213  A    between atoms: _520  and  _522
REMARK  214  A    between atoms: _522  and  _523
REMARK  215  A    between atoms: _522  and  _525
REMARK  216  A    between atoms: _525  and  _526
REMARK  217  A    between atoms: _529  and  _531
REMARK  218  A    between atoms: _531  and  _532
REMARK  219  A    between atoms: _531  and  _534
REMARK  220  A    between atoms: _534  and  _535
REMARK  221  A    between atoms: _538  and  _540
REMARK  222  A    between atoms: _540  and  _541
REMARK  223  A    between atoms: _543  and  _545
REMARK  224  A    between atoms: _545  and  _546
REMARK  225  A    between atoms: _545  and  _548
REMARK  226  A    between atoms: _548  and  _549
REMARK  227  A    between atoms: _549  and  _550
REMARK  228  A    between atoms: _550  and  _551
REMARK  229  A    between atoms: _560  and  _562
REMARK  230  A    between atoms: _562  and  _563
REMARK  231  A    between atoms: _562  and  _565
REMARK  232  A    between atoms: _565  and  _566
REMARK                            x       y       z     vdW  Elec       q    Type
REMARK                         _______ _______ _______ _____ _____    ______ ____
ROOT
ATOM      1  O   HOH     1       9.040  16.410  26.689  0.00  0.00    +0.000 OA
ENDROOT
TORSDOF 0
REMARK  Name = ../refined-set-2016/4zls/4zls_pocket.pdb
REMARK  232 active torsions:
REMARK  status: ('A' for Active; 'I' for Inactive)
REMARK    1  A    between atoms: _1  and  _3
REMARK    2  A    between atoms: _3  and  _4
REMARK    3  A    between atoms: _3  and  _6
REMARK    4  A    between atoms: _6  and  _7
REMARK    5  A    between atoms: _7  and  _8
REMARK    6  A    between atoms: _8  and  _9
REMARK    7  A    between atoms: _18  and  _20
REMARK    8  A    between atoms: _20  and  _21
REMARK    9  A    between atoms: _20  and  _23
REMARK   10  A    between atoms: _23  and  _24
REMARK   11  A    between atoms: _27  and  _29
REMARK   12  A    between atoms: _29  and  _30
REMARK   13  A    between atoms: _29  and  _32
REMARK   14  A    between atoms: _32  and  _33
REMARK   15  A    between atoms: _36  and  _38
REMARK   16  A    between atoms: _38  and  _39
REMARK   17  A    between atoms: _38  and  _41
REMARK   18  A    between atoms: _41  and  _42
REMARK   19  A    between atoms: _45  and  _47
REMARK   20  A    between atoms: _47  and  _48
REMARK   21  A    between atoms: _47  and  _50
REMARK   22  A    between atoms: _50  and  _51
REMARK   23  A    between atoms: _54  and  _56
REMARK   24  A    between atoms: _56  and  _57
REMARK   25  A    between atoms: _59  and  _61
REMARK   26  A    between atoms: _61  and  _62
REMARK   27  A    between atoms: _65  and  _67
REMARK   28  A    between atoms: _67  and  _68
REMARK   29  A    between atoms: _67  and  _70
REMARK   30  A    between atoms: _70  and  _71
REMARK   31  A    between atoms: _74  and  _76
REMARK   32  A    between atoms: _76  and  _77
REMARK   33  A    between atoms: _76  and  _79
REMARK   34  A    between atoms: _79  and  _80
REMARK   35  A    between atoms: _83  and  _85
REMARK   36  A    between atoms: _85  and  _86
REMARK   37  A    between atoms: _85  and  _88
REMARK   38  A    between atoms: _88  and  _89
REMARK   39  A    between atoms: _92  and  _94
REMARK   40  A    between atoms: _94  and  _95
REMARK   41  A    between atoms: _94  and  _97
REMARK   42  A    between atoms: _100  and  _102
REMARK   43  A    between atoms: _102  and  _103
REMARK   44  A    between atoms: _102  and  _105
REMARK   45  A    between atoms: _105  and  _106
REMARK   46  A    between atoms: _106  and  _107
REMARK   47  A    between atoms: _107  and  _108
REMARK   48  A    between atoms: _108  and  _109
REMARK   49  A    between atoms: _113  and  _115
REMARK   50  A    between atoms: _115  and  _116
REMARK   51  A    between atoms: _115  and  _118
REMARK   52  A    between atoms: _118  and  _119
REMARK   53  A    between atoms: _119  and  _120
REMARK   54  A    between atoms: _122  and  _124
REMARK   55  A    between atoms: _124  and  _125
REMARK   56  A    between atoms: _124  and  _127
REMARK   57  A    between atoms: _127  and  _128
REMARK   58  A    between atoms: _131  and  _133
REMARK   59  A    between atoms: _133  and  _134
REMARK   60  A    between atoms: _136  and  _138
REMARK   61  A    between atoms: _138  and  _139
REMARK   62  A    between atoms: _141  and  _143
REMARK   63  A    between atoms: _143  and  _144
REMARK   64  A    between atoms: _143  and  _146
REMARK   65  A    between atoms: _146  and  _147
REMARK   66  A    between atoms: _150  and  _152
REMARK   67  A    between atoms: _152  and  _153
REMARK   68  A    between atoms: _155  and  _157
REMARK   69  A    between atoms: _157  and  _158
REMARK   70  A    between atoms: _160  and  _162
REMARK   71  A    between atoms: _162  and  _163
REMARK   72  A    between atoms: _162  and  _165
REMARK   73  A    between atoms: _165  and  _166
REMARK   74  A    between atoms: _172  and  _174
REMARK   75  A    between atoms: _174  and  _175
REMARK   76  A    between atoms: _174  and  _177
REMARK   77  A    between atoms: _177  and  _178
REMARK   78  A    between atoms: _181  and  _183
REMARK   79  A    between atoms: _183  and  _184
REMARK   80  A    between atoms: _183  and  _186
REMARK   81  A    between atoms: _186  and  _187
REMARK   82  A    between atoms: _190  and  _192
REMARK   83  A    between atoms: _192  and  _193
REMARK   84  A    between atoms: _192  and  _195
REMARK   85  A    between atoms: _195  and  _196
REMARK   86  A    between atoms: _200  and  _201
REMARK   87  A    between atoms: _206  and  _208
REMARK   88  A    between atoms: _208  and  _209
REMARK   89  A    between atoms: _208  and  _211
REMARK   90  A    between atoms: _214  and  _216
REMARK   91  A    between atoms: _216  and  _217
REMARK   92  A    between atoms: _216  and  _219
REMARK   93  A    between atoms: _219  and  _220
REMARK   94  A    between atoms: _225  and  _227
REMARK   95  A    between atoms: _227  and  _228
REMARK   96  A    between atoms: _227  and  _230
REMARK   97  A    between atoms: _230  and  _231
REMARK   98  A    between atoms: _234  and  _236
REMARK   99  A    between atoms: _236  and  _237
REMARK  100  A    between atoms: _239  and  _241
REMARK  101  A    between atoms: _241  and  _242
REMARK  102  A    between atoms: _241  and  _244
REMARK  103  A    between atoms: _244  and  _245
REMARK  104  A    between atoms: _245  and  _246
REMARK  105  A    between atoms: _246  and  _247
REMARK  106  A    between atoms: _256  and  _258
REMARK  107  A    between atoms: _258  and  _259
REMARK  108  A    between atoms: _258  and  _261
REMARK  109  A    between atoms: _261  and  _262
REMARK  110  A    between atoms: _267  and  _269
REMARK  111  A    between atoms: _269  and  _270
REMARK  112  A    between atoms: _269  and  _272
REMARK  113  A    between atoms: _272  and  _273
REMARK  114  A    between atoms: _273  and  _274
REMARK  115  A    between atoms: _274  and  _275
REMARK  116  A    between atoms: _284  and  _286
REMARK  117  A    between atoms: _286  and  _287
REMARK  118  A    between atoms: _286  and  _289
REMARK  119  A    between atoms: _289  and  _290
REMARK  120  A    between atoms: _293  and  _295
REMARK  121  A    between atoms: _295  and  _296
REMARK  122  A    between atoms: _295  and  _298
REMARK  123  A    between atoms: _298  and  _299
REMARK  124  A    between atoms: _302  and  _304
REMARK  125  A    between atoms: _304  and  _305
REMARK  126  A    between atoms: _304  and  _307
REMARK  127  A    between atoms: _307  and  _308
REMARK  128  A    between atoms: _311  and  _313
REMARK  129  A    between atoms: _313  and  _314
REMARK  130  A    between atoms: _313  and  _316
REMARK  131  A    between atoms: _316  and  _317
REMARK  132  A    between atoms: _320  and  _322
REMARK  133  A    between atoms: _322  and  _323
REMARK  134  A    between atoms: _322  and  _325
REMARK  135  A    between atoms: _325  and  _326
REMARK  136  A    between atoms: _329  and  _331
REMARK  137  A    between atoms: _331  and  _332
REMARK  138  A    between atoms: _334  and  _336
REMARK  139  A    between atoms: _336  and  _337
REMARK  140  A    between atoms: _340  and  _342
REMARK  141  A    between atoms: _342  and  _343
REMARK  142  A    between atoms: _342  and  _345
REMARK  143  A    between atoms: _345  and  _346
REMARK  144  A    between atoms: _349  and  _351
REMARK  145  A    between atoms: _351  and  _352
REMARK  146  A    between atoms: _351  and  _354
REMARK  147  A    between atoms: _354  and  _355
REMARK  148  A    between atoms: _358  and  _360
REMARK  149  A    between atoms: _360  and  _361
REMARK  150  A    between atoms: _360  and  _363
REMARK  151  A    between atoms: _363  and  _364
REMARK  152  A    between atoms: _367  and  _369
REMARK  153  A    between atoms: _369  and  _370
REMARK  154  A    between atoms: _369  and  _372
REMARK  155  A    between atoms: _375  and  _377
REMARK  156  A    between atoms: _377  and  _378
REMARK  157  A    between atoms: _377  and  _380
REMARK  158  A    between atoms: _380  and  _381
REMARK  159  A    between atoms: _381  and  _382
REMARK  160  A    between atoms: _382  and  _383
REMARK  161  A    between atoms: _383  and  _384
REMARK  162  A    between atoms: _388  and  _390
REMARK  163  A    between atoms: _390  and  _391
REMARK  164  A    between atoms: _390  and  _393
REMARK  165  A    between atoms: _393  and  _394
REMARK  166  A    between atoms: _394  and  _395
REMARK  167  A    between atoms: _397  and  _399
REMARK  168  A    between atoms: _399  and  _400
REMARK  169  A    between atoms: _399  and  _402
REMARK  170  A    between atoms: _402  and  _403
REMARK  171  A    between atoms: _406  and  _408
REMARK  172  A    between atoms: _408  and  _409
REMARK  173  A    between atoms: _411  and  _413
REMARK  174  A    between atoms: _413  and  _414
REMARK  175  A    between atoms: _416  and  _418
REMARK  176  A    between atoms: _418  and  _419
REMARK  177  A    between atoms: _418  and  _421
REMARK  178  A    between atoms: _421  and  _422
REMARK  179  A    between atoms: _425  and  _427
REMARK  180  A    between atoms: _427  and  _428
REMARK  181  A    between atoms: _430  and  _432
REMARK  182  A    between atoms: _432  and  _433
REMARK  183  A    between atoms: _435  and  _437
REMARK  184  A    between atoms: _437  and  _438
REMARK  185  A    between atoms: _437  and  _440
REMARK  186  A    between atoms: _440  and  _441
REMARK  187  A    between atoms: _447  and  _449
REMARK  188  A    between atoms: _449  and  _450
REMARK  189  A    between atoms: _449  and  _452
REMARK  190  A    between atoms: _452  and  _453
REMARK  191  A    between atoms: _456  and  _458
REMARK  192  A    between atoms: _458  and  _459
REMARK  193  A    between atoms: _458  and  _461
REMARK  194  A    between atoms: _464  and  _466
REMARK  195  A    between atoms: _466  and  _467
REMARK  196  A    between atoms: _466  and  _469
REMARK  197  A    between atoms: _469  and  _470
REMARK  198  A    between atoms: _473  and  _475
REMARK  199  A    between atoms: _475  and  _476
REMARK  200  A    between atoms: _479  and  _480
REMARK  201  A    between atoms: _485  and  _487
REMARK  202  A    between atoms: _487  and  _488
REMARK  203  A    between atoms: _487  and  _490
REMARK  204  A    between atoms: _490  and  _491
REMARK  205  A    between atoms: _495  and  _496
REMARK  206  A    between atoms: _501  and  _503
REMARK  207  A    between atoms: _503  and  _504
REMARK  208  A    between atoms: _503  and  _506
REMARK  209  A    between atoms: _509  and  _511
REMARK  210  A    between atoms: _511  and  _512
REMARK  211  A    between atoms: _511  and  _514
REMARK  212  A    between atoms: _514  and  _515
REMARK  213  A    between atoms: _520  and  _522
REMARK  214  A    between atoms: _522  and  _523
REMARK  215  A    between atoms: _522  and  _525
REMARK  216  A    between atoms: _525  and  _526
REMARK  217  A    between atoms: _529  and  _531
REMARK  218  A    between atoms: _531  and  _532
REMARK  219  A    between atoms: _531  and  _534
REMARK  220  A    between atoms: _534  and  _535
REMARK  221  A    between atoms: _538  and  _540
REMARK  222  A    between atoms: _540  and  _541
REMARK  223  A    between atoms: _543  and  _545
REMARK  224  A    between atoms: _545  and  _546
REMARK  225  A    between atoms: _545  and  _548
REMARK  226  A    between atoms: _548  and  _549
REMARK  227  A    between atoms: _549  and  _550
REMARK  228  A    between atoms: _550  and  _551
REMARK  229  A    between atoms: _560  and  _562
REMARK  230  A    between atoms: _562  and  _563
REMARK  231  A    between atoms: _562  and  _565
REMARK  232  A    between atoms: _565  and  _566
REMARK                            x       y       z     vdW  Elec       q    Type
REMARK                         _______ _______ _______ _____ _____    ______ ____
ROOT
ATOM      1  O   HOH     1      23.011  26.584  28.405  0.00  0.00    +0.000 OA
ENDROOT
TORSDOF 0
REMARK  Name = ../refined-set-2016/4zls/4zls_pocket.pdb
REMARK  232 active torsions:
REMARK  status: ('A' for Active; 'I' for Inactive)
REMARK    1  A    between atoms: _1  and  _3
REMARK    2  A    between atoms: _3  and  _4
REMARK    3  A    between atoms: _3  and  _6
REMARK    4  A    between atoms: _6  and  _7
REMARK    5  A    between atoms: _7  and  _8
REMARK    6  A    between atoms: _8  and  _9
REMARK    7  A    between atoms: _18  and  _20
REMARK    8  A    between atoms: _20  and  _21
REMARK    9  A    between atoms: _20  and  _23
REMARK   10  A    between atoms: _23  and  _24
REMARK   11  A    between atoms: _27  and  _29
REMARK   12  A    between atoms: _29  and  _30
REMARK   13  A    between atoms: _29  and  _32
REMARK   14  A    between atoms: _32  and  _33
REMARK   15  A    between atoms: _36  and  _38
REMARK   16  A    between atoms: _38  and  _39
REMARK   17  A    between atoms: _38  and  _41
REMARK   18  A    between atoms: _41  and  _42
REMARK   19  A    between atoms: _45  and  _47
REMARK   20  A    between atoms: _47  and  _48
REMARK   21  A    between atoms: _47  and  _50
REMARK   22  A    between atoms: _50  and  _51
REMARK   23  A    between atoms: _54  and  _56
REMARK   24  A    between atoms: _56  and  _57
REMARK   25  A    between atoms: _59  and  _61
REMARK   26  A    between atoms: _61  and  _62
REMARK   27  A    between atoms: _65  and  _67
REMARK   28  A    between atoms: _67  and  _68
REMARK   29  A    between atoms: _67  and  _70
REMARK   30  A    between atoms: _70  and  _71
REMARK   31  A    between atoms: _74  and  _76
REMARK   32  A    between atoms: _76  and  _77
REMARK   33  A    between atoms: _76  and  _79
REMARK   34  A    between atoms: _79  and  _80
REMARK   35  A    between atoms: _83  and  _85
REMARK   36  A    between atoms: _85  and  _86
REMARK   37  A    between atoms: _85  and  _88
REMARK   38  A    between atoms: _88  and  _89
REMARK   39  A    between atoms: _92  and  _94
REMARK   40  A    between atoms: _94  and  _95
REMARK   41  A    between atoms: _94  and  _97
REMARK   42  A    between atoms: _100  and  _102
REMARK   43  A    between atoms: _102  and  _103
REMARK   44  A    between atoms: _102  and  _105
REMARK   45  A    between atoms: _105  and  _106
REMARK   46  A    between atoms: _106  and  _107
REMARK   47  A    between atoms: _107  and  _108
REMARK   48  A    between atoms: _108  and  _109
REMARK   49  A    between atoms: _113  and  _115
REMARK   50  A    between atoms: _115  and  _116
REMARK   51  A    between atoms: _115  and  _118
REMARK   52  A    between atoms: _118  and  _119
REMARK   53  A    between atoms: _119  and  _120
REMARK   54  A    between atoms: _122  and  _124
REMARK   55  A    between atoms: _124  and  _125
REMARK   56  A    between atoms: _124  and  _127
REMARK   57  A    between atoms: _127  and  _128
REMARK   58  A    between atoms: _131  and  _133
REMARK   59  A    between atoms: _133  and  _134
REMARK   60  A    between atoms: _136  and  _138
REMARK   61  A    between atoms: _138  and  _139
REMARK   62  A    between atoms: _141  and  _143
REMARK   63  A    between atoms: _143  and  _144
REMARK   64  A    between atoms: _143  and  _146
REMARK   65  A    between atoms: _146  and  _147
REMARK   66  A    between atoms: _150  and  _152
REMARK   67  A    between atoms: _152  and  _153
REMARK   68  A    between atoms: _155  and  _157
REMARK   69  A    between atoms: _157  and  _158
REMARK   70  A    between atoms: _160  and  _162
REMARK   71  A    between atoms: _162  and  _163
REMARK   72  A    between atoms: _162  and  _165
REMARK   73  A    between atoms: _165  and  _166
REMARK   74  A    between atoms: _172  and  _174
REMARK   75  A    between atoms: _174  and  _175
REMARK   76  A    between atoms: _174  and  _177
REMARK   77  A    between atoms: _177  and  _178
REMARK   78  A    between atoms: _181  and  _183
REMARK   79  A    between atoms: _183  and  _184
REMARK   80  A    between atoms: _183  and  _186
REMARK   81  A    between atoms: _186  and  _187
REMARK   82  A    between atoms: _190  and  _192
REMARK   83  A    between atoms: _192  and  _193
REMARK   84  A    between atoms: _192  and  _195
REMARK   85  A    between atoms: _195  and  _196
REMARK   86  A    between atoms: _200  and  _201
REMARK   87  A    between atoms: _206  and  _208
REMARK   88  A    between atoms: _208  and  _209
REMARK   89  A    between atoms: _208  and  _211
REMARK   90  A    between atoms: _214  and  _216
REMARK   91  A    between atoms: _216  and  _217
REMARK   92  A    between atoms: _216  and  _219
REMARK   93  A    between atoms: _219  and  _220
REMARK   94  A    between atoms: _225  and  _227
REMARK   95  A    between atoms: _227  and  _228
REMARK   96  A    between atoms: _227  and  _230
REMARK   97  A    between atoms: _230  and  _231
REMARK   98  A    between atoms: _234  and  _236
REMARK   99  A    between atoms: _236  and  _237
REMARK  100  A    between atoms: _239  and  _241
REMARK  101  A    between atoms: _241  and  _242
REMARK  102  A    between atoms: _241  and  _244
REMARK  103  A    between atoms: _244  and  _245
REMARK  104  A    between atoms: _245  and  _246
REMARK  105  A    between atoms: _246  and  _247
REMARK  106  A    between atoms: _256  and  _258
REMARK  107  A    between atoms: _258  and  _259
REMARK  108  A    between atoms: _258  and  _261
REMARK  109  A    between atoms: _261  and  _262
REMARK  110  A    between atoms: _267  and  _269
REMARK  111  A    between atoms: _269  and  _270
REMARK  112  A    between atoms: _269  and  _272
REMARK  113  A    between atoms: _272  and  _273
REMARK  114  A    between atoms: _273  and  _274
REMARK  115  A    between atoms: _274  and  _275
REMARK  116  A    between atoms: _284  and  _286
REMARK  117  A    between atoms: _286  and  _287
REMARK  118  A    between atoms: _286  and  _289
REMARK  119  A    between atoms: _289  and  _290
REMARK  120  A    between atoms: _293  and  _295
REMARK  121  A    between atoms: _295  and  _296
REMARK  122  A    between atoms: _295  and  _298
REMARK  123  A    between atoms: _298  and  _299
REMARK  124  A    between atoms: _302  and  _304
REMARK  125  A    between atoms: _304  and  _305
REMARK  126  A    between atoms: _304  and  _307
REMARK  127  A    between atoms: _307  and  _308
REMARK  128  A    between atoms: _311  and  _313
REMARK  129  A    between atoms: _313  and  _314
REMARK  130  A    between atoms: _313  and  _316
REMARK  131  A    between atoms: _316  and  _317
REMARK  132  A    between atoms: _320  and  _322
REMARK  133  A    between atoms: _322  and  _323
REMARK  134  A    between atoms: _322  and  _325
REMARK  135  A    between atoms: _325  and  _326
REMARK  136  A    between atoms: _329  and  _331
REMARK  137  A    between atoms: _331  and  _332
REMARK  138  A    between atoms: _334  and  _336
REMARK  139  A    between atoms: _336  and  _337
REMARK  140  A    between atoms: _340  and  _342
REMARK  141  A    between atoms: _342  and  _343
REMARK  142  A    between atoms: _342  and  _345
REMARK  143  A    between atoms: _345  and  _346
REMARK  144  A    between atoms: _349  and  _351
REMARK  145  A    between atoms: _351  and  _352
REMARK  146  A    between atoms: _351  and  _354
REMARK  147  A    between atoms: _354  and  _355
REMARK  148  A    between atoms: _358  and  _360
REMARK  149  A    between atoms: _360  and  _361
REMARK  150  A    between atoms: _360  and  _363
REMARK  151  A    between atoms: _363  and  _364
REMARK  152  A    between atoms: _367  and  _369
REMARK  153  A    between atoms: _369  and  _370
REMARK  154  A    between atoms: _369  and  _372
REMARK  155  A    between atoms: _375  and  _377
REMARK  156  A    between atoms: _377  and  _378
REMARK  157  A    between atoms: _377  and  _380
REMARK  158  A    between atoms: _380  and  _381
REMARK  159  A    between atoms: _381  and  _382
REMARK  160  A    between atoms: _382  and  _383
REMARK  161  A    between atoms: _383  and  _384
REMARK  162  A    between atoms: _388  and  _390
REMARK  163  A    between atoms: _390  and  _391
REMARK  164  A    between atoms: _390  and  _393
REMARK  165  A    between atoms: _393  and  _394
REMARK  166  A    between atoms: _394  and  _395
REMARK  167  A    between atoms: _397  and  _399
REMARK  168  A    between atoms: _399  and  _400
REMARK  169  A    between atoms: _399  and  _402
REMARK  170  A    between atoms: _402  and  _403
REMARK  171  A    between atoms: _406  and  _408
REMARK  172  A    between atoms: _408  and  _409
REMARK  173  A    between atoms: _411  and  _413
REMARK  174  A    between atoms: _413  and  _414
REMARK  175  A    between atoms: _416  and  _418
REMARK  176  A    between atoms: _418  and  _419
REMARK  177  A    between atoms: _418  and  _421
REMARK  178  A    between atoms: _421  and  _422
REMARK  179  A    between atoms: _425  and  _427
REMARK  180  A    between atoms: _427  and  _428
REMARK  181  A    between atoms: _430  and  _432
REMARK  182  A    between atoms: _432  and  _433
REMARK  183  A    between atoms: _435  and  _437
REMARK  184  A    between atoms: _437  and  _438
REMARK  185  A    between atoms: _437  and  _440
REMARK  186  A    between atoms: _440  and  _441
REMARK  187  A    between atoms: _447  and  _449
REMARK  188  A    between atoms: _449  and  _450
REMARK  189  A    between atoms: _449  and  _452
REMARK  190  A    between atoms: _452  and  _453
REMARK  191  A    between atoms: _456  and  _458
REMARK  192  A    between atoms: _458  and  _459
REMARK  193  A    between atoms: _458  and  _461
REMARK  194  A    between atoms: _464  and  _466
REMARK  195  A    between atoms: _466  and  _467
REMARK  196  A    between atoms: _466  and  _469
REMARK  197  A    between atoms: _469  and  _470
REMARK  198  A    between atoms: _473  and  _475
REMARK  199  A    between atoms: _475  and  _476
REMARK  200  A    between atoms: _479  and  _480
REMARK  201  A    between atoms: _485  and  _487
REMARK  202  A    between atoms: _487  and  _488
REMARK  203  A    between atoms: _487  and  _490
REMARK  204  A    between atoms: _490  and  _491
REMARK  205  A    between atoms: _495  and  _496
REMARK  206  A    between atoms: _501  and  _503
REMARK  207  A    between atoms: _503  and  _504
REMARK  208  A    between atoms: _503  and  _506
REMARK  209  A    between atoms: _509  and  _511
REMARK  210  A    between atoms: _511  and  _512
REMARK  211  A    between atoms: _511  and  _514
REMARK  212  A    between atoms: _514  and  _515
REMARK  213  A    between atoms: _520  and  _522
REMARK  214  A    between atoms: _522  and  _523
REMARK  215  A    between atoms: _522  and  _525
REMARK  216  A    between atoms: _525  and  _526
REMARK  217  A    between atoms: _529  and  _531
REMARK  218  A    between atoms: _531  and  _532
REMARK  219  A    between atoms: _531  and  _534
REMARK  220  A    between atoms: _534  and  _535
REMARK  221  A    between atoms: _538  and  _540
REMARK  222  A    between atoms: _540  and  _541
REMARK  223  A    between atoms: _543  and  _545
REMARK  224  A    between atoms: _545  and  _546
REMARK  225  A    between atoms: _545  and  _548
REMARK  226  A    between atoms: _548  and  _549
REMARK  227  A    between atoms: _549  and  _550
REMARK  228  A    between atoms: _550  and  _551
REMARK  229  A    between atoms: _560  and  _562
REMARK  230  A    between atoms: _562  and  _563
REMARK  231  A    between atoms: _562  and  _565
REMARK  232  A    between atoms: _565  and  _566
REMARK                            x       y       z     vdW  Elec       q    Type
REMARK                         _______ _______ _______ _____ _____    ______ ____
ROOT
ATOM      1  O   HOH     1      11.116  18.388  15.945  0.00  0.00    +0.000 OA
ENDROOT
TORSDOF 0
REMARK  Name = ../refined-set-2016/4zls/4zls_pocket.pdb
REMARK  232 active torsions:
REMARK  status: ('A' for Active; 'I' for Inactive)
REMARK    1  A    between atoms: _1  and  _3
REMARK    2  A    between atoms: _3  and  _4
REMARK    3  A    between atoms: _3  and  _6
REMARK    4  A    between atoms: _6  and  _7
REMARK    5  A    between atoms: _7  and  _8
REMARK    6  A    between atoms: _8  and  _9
REMARK    7  A    between atoms: _18  and  _20
REMARK    8  A    between atoms: _20  and  _21
REMARK    9  A    between atoms: _20  and  _23
REMARK   10  A    between atoms: _23  and  _24
REMARK   11  A    between atoms: _27  and  _29
REMARK   12  A    between atoms: _29  and  _30
REMARK   13  A    between atoms: _29  and  _32
REMARK   14  A    between atoms: _32  and  _33
REMARK   15  A    between atoms: _36  and  _38
REMARK   16  A    between atoms: _38  and  _39
REMARK   17  A    between atoms: _38  and  _41
REMARK   18  A    between atoms: _41  and  _42
REMARK   19  A    between atoms: _45  and  _47
REMARK   20  A    between atoms: _47  and  _48
REMARK   21  A    between atoms: _47  and  _50
REMARK   22  A    between atoms: _50  and  _51
REMARK   23  A    between atoms: _54  and  _56
REMARK   24  A    between atoms: _56  and  _57
REMARK   25  A    between atoms: _59  and  _61
REMARK   26  A    between atoms: _61  and  _62
REMARK   27  A    between atoms: _65  and  _67
REMARK   28  A    between atoms: _67  and  _68
REMARK   29  A    between atoms: _67  and  _70
REMARK   30  A    between atoms: _70  and  _71
REMARK   31  A    between atoms: _74  and  _76
REMARK   32  A    between atoms: _76  and  _77
REMARK   33  A    between atoms: _76  and  _79
REMARK   34  A    between atoms: _79  and  _80
REMARK   35  A    between atoms: _83  and  _85
REMARK   36  A    between atoms: _85  and  _86
REMARK   37  A    between atoms: _85  and  _88
REMARK   38  A    between atoms: _88  and  _89
REMARK   39  A    between atoms: _92  and  _94
REMARK   40  A    between atoms: _94  and  _95
REMARK   41  A    between atoms: _94  and  _97
REMARK   42  A    between atoms: _100  and  _102
REMARK   43  A    between atoms: _102  and  _103
REMARK   44  A    between atoms: _102  and  _105
REMARK   45  A    between atoms: _105  and  _106
REMARK   46  A    between atoms: _106  and  _107
REMARK   47  A    between atoms: _107  and  _108
REMARK   48  A    between atoms: _108  and  _109
REMARK   49  A    between atoms: _113  and  _115
REMARK   50  A    between atoms: _115  and  _116
REMARK   51  A    between atoms: _115  and  _118
REMARK   52  A    between atoms: _118  and  _119
REMARK   53  A    between atoms: _119  and  _120
REMARK   54  A    between atoms: _122  and  _124
REMARK   55  A    between atoms: _124  and  _125
REMARK   56  A    between atoms: _124  and  _127
REMARK   57  A    between atoms: _127  and  _128
REMARK   58  A    between atoms: _131  and  _133
REMARK   59  A    between atoms: _133  and  _134
REMARK   60  A    between atoms: _136  and  _138
REMARK   61  A    between atoms: _138  and  _139
REMARK   62  A    between atoms: _141  and  _143
REMARK   63  A    between atoms: _143  and  _144
REMARK   64  A    between atoms: _143  and  _146
REMARK   65  A    between atoms: _146  and  _147
REMARK   66  A    between atoms: _150  and  _152
REMARK   67  A    between atoms: _152  and  _153
REMARK   68  A    between atoms: _155  and  _157
REMARK   69  A    between atoms: _157  and  _158
REMARK   70  A    between atoms: _160  and  _162
REMARK   71  A    between atoms: _162  and  _163
REMARK   72  A    between atoms: _162  and  _165
REMARK   73  A    between atoms: _165  and  _166
REMARK   74  A    between atoms: _172  and  _174
REMARK   75  A    between atoms: _174  and  _175
REMARK   76  A    between atoms: _174  and  _177
REMARK   77  A    between atoms: _177  and  _178
REMARK   78  A    between atoms: _181  and  _183
REMARK   79  A    between atoms: _183  and  _184
REMARK   80  A    between atoms: _183  and  _186
REMARK   81  A    between atoms: _186  and  _187
REMARK   82  A    between atoms: _190  and  _192
REMARK   83  A    between atoms: _192  and  _193
REMARK   84  A    between atoms: _192  and  _195
REMARK   85  A    between atoms: _195  and  _196
REMARK   86  A    between atoms: _200  and  _201
REMARK   87  A    between atoms: _206  and  _208
REMARK   88  A    between atoms: _208  and  _209
REMARK   89  A    between atoms: _208  and  _211
REMARK   90  A    between atoms: _214  and  _216
REMARK   91  A    between atoms: _216  and  _217
REMARK   92  A    between atoms: _216  and  _219
REMARK   93  A    between atoms: _219  and  _220
REMARK   94  A    between atoms: _225  and  _227
REMARK   95  A    between atoms: _227  and  _228
REMARK   96  A    between atoms: _227  and  _230
REMARK   97  A    between atoms: _230  and  _231
REMARK   98  A    between atoms: _234  and  _236
REMARK   99  A    between atoms: _236  and  _237
REMARK  100  A    between atoms: _239  and  _241
REMARK  101  A    between atoms: _241  and  _242
REMARK  102  A    between atoms: _241  and  _244
REMARK  103  A    between atoms: _244  and  _245
REMARK  104  A    between atoms: _245  and  _246
REMARK  105  A    between atoms: _246  and  _247
REMARK  106  A    between atoms: _256  and  _258
REMARK  107  A    between atoms: _258  and  _259
REMARK  108  A    between atoms: _258  and  _261
REMARK  109  A    between atoms: _261  and  _262
REMARK  110  A    between atoms: _267  and  _269
REMARK  111  A    between atoms: _269  and  _270
REMARK  112  A    between atoms: _269  and  _272
REMARK  113  A    between atoms: _272  and  _273
REMARK  114  A    between atoms: _273  and  _274
REMARK  115  A    between atoms: _274  and  _275
REMARK  116  A    between atoms: _284  and  _286
REMARK  117  A    between atoms: _286  and  _287
REMARK  118  A    between atoms: _286  and  _289
REMARK  119  A    between atoms: _289  and  _290
REMARK  120  A    between atoms: _293  and  _295
REMARK  121  A    between atoms: _295  and  _296
REMARK  122  A    between atoms: _295  and  _298
REMARK  123  A    between atoms: _298  and  _299
REMARK  124  A    between atoms: _302  and  _304
REMARK  125  A    between atoms: _304  and  _305
REMARK  126  A    between atoms: _304  and  _307
REMARK  127  A    between atoms: _307  and  _308
REMARK  128  A    between atoms: _311  and  _313
REMARK  129  A    between atoms: _313  and  _314
REMARK  130  A    between atoms: _313  and  _316
REMARK  131  A    between atoms: _316  and  _317
REMARK  132  A    between atoms: _320  and  _322
REMARK  133  A    between atoms: _322  and  _323
REMARK  134  A    between atoms: _322  and  _325
REMARK  135  A    between atoms: _325  and  _326
REMARK  136  A    between atoms: _329  and  _331
REMARK  137  A    between atoms: _331  and  _332
REMARK  138  A    between atoms: _334  and  _336
REMARK  139  A    between atoms: _336  and  _337
REMARK  140  A    between atoms: _340  and  _342
REMARK  141  A    between atoms: _342  and  _343
REMARK  142  A    between atoms: _342  and  _345
REMARK  143  A    between atoms: _345  and  _346
REMARK  144  A    between atoms: _349  and  _351
REMARK  145  A    between atoms: _351  and  _352
REMARK  146  A    between atoms: _351  and  _354
REMARK  147  A    between atoms: _354  and  _355
REMARK  148  A    between atoms: _358  and  _360
REMARK  149  A    between atoms: _360  and  _361
REMARK  150  A    between atoms: _360  and  _363
REMARK  151  A    between atoms: _363  and  _364
REMARK  152  A    between atoms: _367  and  _369
REMARK  153  A    between atoms: _369  and  _370
REMARK  154  A    between atoms: _369  and  _372
REMARK  155  A    between atoms: _375  and  _377
REMARK  156  A    between atoms: _377  and  _378
REMARK  157  A    between atoms: _377  and  _380
REMARK  158  A    between atoms: _380  and  _381
REMARK  159  A    between atoms: _381  and  _382
REMARK  160  A    between atoms: _382  and  _383
REMARK  161  A    between atoms: _383  and  _384
REMARK  162  A    between atoms: _388  and  _390
REMARK  163  A    between atoms: _390  and  _391
REMARK  164  A    between atoms: _390  and  _393
REMARK  165  A    between atoms: _393  and  _394
REMARK  166  A    between atoms: _394  and  _395
REMARK  167  A    between atoms: _397  and  _399
REMARK  168  A    between atoms: _399  and  _400
REMARK  169  A    between atoms: _399  and  _402
REMARK  170  A    between atoms: _402  and  _403
REMARK  171  A    between atoms: _406  and  _408
REMARK  172  A    between atoms: _408  and  _409
REMARK  173  A    between atoms: _411  and  _413
REMARK  174  A    between atoms: _413  and  _414
REMARK  175  A    between atoms: _416  and  _418
REMARK  176  A    between atoms: _418  and  _419
REMARK  177  A    between atoms: _418  and  _421
REMARK  178  A    between atoms: _421  and  _422
REMARK  179  A    between atoms: _425  and  _427
REMARK  180  A    between atoms: _427  and  _428
REMARK  181  A    between atoms: _430  and  _432
REMARK  182  A    between atoms: _432  and  _433
REMARK  183  A    between atoms: _435  and  _437
REMARK  184  A    between atoms: _437  and  _438
REMARK  185  A    between atoms: _437  and  _440
REMARK  186  A    between atoms: _440  and  _441
REMARK  187  A    between atoms: _447  and  _449
REMARK  188  A    between atoms: _449  and  _450
REMARK  189  A    between atoms: _449  and  _452
REMARK  190  A    between atoms: _452  and  _453
REMARK  191  A    between atoms: _456  and  _458
REMARK  192  A    between atoms: _458  and  _459
REMARK  193  A    between atoms: _458  and  _461
REMARK  194  A    between atoms: _464  and  _466
REMARK  195  A    between atoms: _466  and  _467
REMARK  196  A    between atoms: _466  and  _469
REMARK  197  A    between atoms: _469  and  _470
REMARK  198  A    between atoms: _473  and  _475
REMARK  199  A    between atoms: _475  and  _476
REMARK  200  A    between atoms: _479  and  _480
REMARK  201  A    between atoms: _485  and  _487
REMARK  202  A    between atoms: _487  and  _488
REMARK  203  A    between atoms: _487  and  _490
REMARK  204  A    between atoms: _490  and  _491
REMARK  205  A    between atoms: _495  and  _496
REMARK  206  A    between atoms: _501  and  _503
REMARK  207  A    between atoms: _503  and  _504
REMARK  208  A    between atoms: _503  and  _506
REMARK  209  A    between atoms: _509  and  _511
REMARK  210  A    between atoms: _511  and  _512
REMARK  211  A    between atoms: _511  and  _514
REMARK  212  A    between atoms: _514  and  _515
REMARK  213  A    between atoms: _520  and  _522
REMARK  214  A    between atoms: _522  and  _523
REMARK  215  A    between atoms: _522  and  _525
REMARK  216  A    between atoms: _525  and  _526
REMARK  217  A    between atoms: _529  and  _531
REMARK  218  A    between atoms: _531  and  _532
REMARK  219  A    between atoms: _531  and  _534
REMARK  220  A    between atoms: _534  and  _535
REMARK  221  A    between atoms: _538  and  _540
REMARK  222  A    between atoms: _540  and  _541
REMARK  223  A    between atoms: _543  and  _545
REMARK  224  A    between atoms: _545  and  _546
REMARK  225  A    between atoms: _545  and  _548
REMARK  226  A    between atoms: _548  and  _549
REMARK  227  A    between atoms: _549  and  _550
REMARK  228  A    between atoms: _550  and  _551
REMARK  229  A    between atoms: _560  and  _562
REMARK  230  A    between atoms: _562  and  _563
REMARK  231  A    between atoms: _562  and  _565
REMARK  232  A    between atoms: _565  and  _566
REMARK                            x       y       z     vdW  Elec       q    Type
REMARK                         _______ _______ _______ _____ _____    ______ ____
ROOT
ATOM      1  O   HOH     1      14.949  16.305  11.628  0.00  0.00    +0.000 OA
ENDROOT
TORSDOF 0
REMARK  Name = ../refined-set-2016/4zls/4zls_pocket.pdb
REMARK  232 active torsions:
REMARK  status: ('A' for Active; 'I' for Inactive)
REMARK    1  A    between atoms: _1  and  _3
REMARK    2  A    between atoms: _3  and  _4
REMARK    3  A    between atoms: _3  and  _6
REMARK    4  A    between atoms: _6  and  _7
REMARK    5  A    between atoms: _7  and  _8
REMARK    6  A    between atoms: _8  and  _9
REMARK    7  A    between atoms: _18  and  _20
REMARK    8  A    between atoms: _20  and  _21
REMARK    9  A    between atoms: _20  and  _23
REMARK   10  A    between atoms: _23  and  _24
REMARK   11  A    between atoms: _27  and  _29
REMARK   12  A    between atoms: _29  and  _30
REMARK   13  A    between atoms: _29  and  _32
REMARK   14  A    between atoms: _32  and  _33
REMARK   15  A    between atoms: _36  and  _38
REMARK   16  A    between atoms: _38  and  _39
REMARK   17  A    between atoms: _38  and  _41
REMARK   18  A    between atoms: _41  and  _42
REMARK   19  A    between atoms: _45  and  _47
REMARK   20  A    between atoms: _47  and  _48
REMARK   21  A    between atoms: _47  and  _50
REMARK   22  A    between atoms: _50  and  _51
REMARK   23  A    between atoms: _54  and  _56
REMARK   24  A    between atoms: _56  and  _57
REMARK   25  A    between atoms: _59  and  _61
REMARK   26  A    between atoms: _61  and  _62
REMARK   27  A    between atoms: _65  and  _67
REMARK   28  A    between atoms: _67  and  _68
REMARK   29  A    between atoms: _67  and  _70
REMARK   30  A    between atoms: _70  and  _71
REMARK   31  A    between atoms: _74  and  _76
REMARK   32  A    between atoms: _76  and  _77
REMARK   33  A    between atoms: _76  and  _79
REMARK   34  A    between atoms: _79  and  _80
REMARK   35  A    between atoms: _83  and  _85
REMARK   36  A    between atoms: _85  and  _86
REMARK   37  A    between atoms: _85  and  _88
REMARK   38  A    between atoms: _88  and  _89
REMARK   39  A    between atoms: _92  and  _94
REMARK   40  A    between atoms: _94  and  _95
REMARK   41  A    between atoms: _94  and  _97
REMARK   42  A    between atoms: _100  and  _102
REMARK   43  A    between atoms: _102  and  _103
REMARK   44  A    between atoms: _102  and  _105
REMARK   45  A    between atoms: _105  and  _106
REMARK   46  A    between atoms: _106  and  _107
REMARK   47  A    between atoms: _107  and  _108
REMARK   48  A    between atoms: _108  and  _109
REMARK   49  A    between atoms: _113  and  _115
REMARK   50  A    between atoms: _115  and  _116
REMARK   51  A    between atoms: _115  and  _118
REMARK   52  A    between atoms: _118  and  _119
REMARK   53  A    between atoms: _119  and  _120
REMARK   54  A    between atoms: _122  and  _124
REMARK   55  A    between atoms: _124  and  _125
REMARK   56  A    between atoms: _124  and  _127
REMARK   57  A    between atoms: _127  and  _128
REMARK   58  A    between atoms: _131  and  _133
REMARK   59  A    between atoms: _133  and  _134
REMARK   60  A    between atoms: _136  and  _138
REMARK   61  A    between atoms: _138  and  _139
REMARK   62  A    between atoms: _141  and  _143
REMARK   63  A    between atoms: _143  and  _144
REMARK   64  A    between atoms: _143  and  _146
REMARK   65  A    between atoms: _146  and  _147
REMARK   66  A    between atoms: _150  and  _152
REMARK   67  A    between atoms: _152  and  _153
REMARK   68  A    between atoms: _155  and  _157
REMARK   69  A    between atoms: _157  and  _158
REMARK   70  A    between atoms: _160  and  _162
REMARK   71  A    between atoms: _162  and  _163
REMARK   72  A    between atoms: _162  and  _165
REMARK   73  A    between atoms: _165  and  _166
REMARK   74  A    between atoms: _172  and  _174
REMARK   75  A    between atoms: _174  and  _175
REMARK   76  A    between atoms: _174  and  _177
REMARK   77  A    between atoms: _177  and  _178
REMARK   78  A    between atoms: _181  and  _183
REMARK   79  A    between atoms: _183  and  _184
REMARK   80  A    between atoms: _183  and  _186
REMARK   81  A    between atoms: _186  and  _187
REMARK   82  A    between atoms: _190  and  _192
REMARK   83  A    between atoms: _192  and  _193
REMARK   84  A    between atoms: _192  and  _195
REMARK   85  A    between atoms: _195  and  _196
REMARK   86  A    between atoms: _200  and  _201
REMARK   87  A    between atoms: _206  and  _208
REMARK   88  A    between atoms: _208  and  _209
REMARK   89  A    between atoms: _208  and  _211
REMARK   90  A    between atoms: _214  and  _216
REMARK   91  A    between atoms: _216  and  _217
REMARK   92  A    between atoms: _216  and  _219
REMARK   93  A    between atoms: _219  and  _220
REMARK   94  A    between atoms: _225  and  _227
REMARK   95  A    between atoms: _227  and  _228
REMARK   96  A    between atoms: _227  and  _230
REMARK   97  A    between atoms: _230  and  _231
REMARK   98  A    between atoms: _234  and  _236
REMARK   99  A    between atoms: _236  and  _237
REMARK  100  A    between atoms: _239  and  _241
REMARK  101  A    between atoms: _241  and  _242
REMARK  102  A    between atoms: _241  and  _244
REMARK  103  A    between atoms: _244  and  _245
REMARK  104  A    between atoms: _245  and  _246
REMARK  105  A    between atoms: _246  and  _247
REMARK  106  A    between atoms: _256  and  _258
REMARK  107  A    between atoms: _258  and  _259
REMARK  108  A    between atoms: _258  and  _261
REMARK  109  A    between atoms: _261  and  _262
REMARK  110  A    between atoms: _267  and  _269
REMARK  111  A    between atoms: _269  and  _270
REMARK  112  A    between atoms: _269  and  _272
REMARK  113  A    between atoms: _272  and  _273
REMARK  114  A    between atoms: _273  and  _274
REMARK  115  A    between atoms: _274  and  _275
REMARK  116  A    between atoms: _284  and  _286
REMARK  117  A    between atoms: _286  and  _287
REMARK  118  A    between atoms: _286  and  _289
REMARK  119  A    between atoms: _289  and  _290
REMARK  120  A    between atoms: _293  and  _295
REMARK  121  A    between atoms: _295  and  _296
REMARK  122  A    between atoms: _295  and  _298
REMARK  123  A    between atoms: _298  and  _299
REMARK  124  A    between atoms: _302  and  _304
REMARK  125  A    between atoms: _304  and  _305
REMARK  126  A    between atoms: _304  and  _307
REMARK  127  A    between atoms: _307  and  _308
REMARK  128  A    between atoms: _311  and  _313
REMARK  129  A    between atoms: _313  and  _314
REMARK  130  A    between atoms: _313  and  _316
REMARK  131  A    between atoms: _316  and  _317
REMARK  132  A    between atoms: _320  and  _322
REMARK  133  A    between atoms: _322  and  _323
REMARK  134  A    between atoms: _322  and  _325
REMARK  135  A    between atoms: _325  and  _326
REMARK  136  A    between atoms: _329  and  _331
REMARK  137  A    between atoms: _331  and  _332
REMARK  138  A    between atoms: _334  and  _336
REMARK  139  A    between atoms: _336  and  _337
REMARK  140  A    between atoms: _340  and  _342
REMARK  141  A    between atoms: _342  and  _343
REMARK  142  A    between atoms: _342  and  _345
REMARK  143  A    between atoms: _345  and  _346
REMARK  144  A    between atoms: _349  and  _351
REMARK  145  A    between atoms: _351  and  _352
REMARK  146  A    between atoms: _351  and  _354
REMARK  147  A    between atoms: _354  and  _355
REMARK  148  A    between atoms: _358  and  _360
REMARK  149  A    between atoms: _360  and  _361
REMARK  150  A    between atoms: _360  and  _363
REMARK  151  A    between atoms: _363  and  _364
REMARK  152  A    between atoms: _367  and  _369
REMARK  153  A    between atoms: _369  and  _370
REMARK  154  A    between atoms: _369  and  _372
REMARK  155  A    between atoms: _375  and  _377
REMARK  156  A    between atoms: _377  and  _378
REMARK  157  A    between atoms: _377  and  _380
REMARK  158  A    between atoms: _380  and  _381
REMARK  159  A    between atoms: _381  and  _382
REMARK  160  A    between atoms: _382  and  _383
REMARK  161  A    between atoms: _383  and  _384
REMARK  162  A    between atoms: _388  and  _390
REMARK  163  A    between atoms: _390  and  _391
REMARK  164  A    between atoms: _390  and  _393
REMARK  165  A    between atoms: _393  and  _394
REMARK  166  A    between atoms: _394  and  _395
REMARK  167  A    between atoms: _397  and  _399
REMARK  168  A    between atoms: _399  and  _400
REMARK  169  A    between atoms: _399  and  _402
REMARK  170  A    between atoms: _402  and  _403
REMARK  171  A    between atoms: _406  and  _408
REMARK  172  A    between atoms: _408  and  _409
REMARK  173  A    between atoms: _411  and  _413
REMARK  174  A    between atoms: _413  and  _414
REMARK  175  A    between atoms: _416  and  _418
REMARK  176  A    between atoms: _418  and  _419
REMARK  177  A    between atoms: _418  and  _421
REMARK  178  A    between atoms: _421  and  _422
REMARK  179  A    between atoms: _425  and  _427
REMARK  180  A    between atoms: _427  and  _428
REMARK  181  A    between atoms: _430  and  _432
REMARK  182  A    between atoms: _432  and  _433
REMARK  183  A    between atoms: _435  and  _437
REMARK  184  A    between atoms: _437  and  _438
REMARK  185  A    between atoms: _437  and  _440
REMARK  186  A    between atoms: _440  and  _441
REMARK  187  A    between atoms: _447  and  _449
REMARK  188  A    between atoms: _449  and  _450
REMARK  189  A    between atoms: _449  and  _452
REMARK  190  A    between atoms: _452  and  _453
REMARK  191  A    between atoms: _456  and  _458
REMARK  192  A    between atoms: _458  and  _459
REMARK  193  A    between atoms: _458  and  _461
REMARK  194  A    between atoms: _464  and  _466
REMARK  195  A    between atoms: _466  and  _467
REMARK  196  A    between atoms: _466  and  _469
REMARK  197  A    between atoms: _469  and  _470
REMARK  198  A    between atoms: _473  and  _475
REMARK  199  A    between atoms: _475  and  _476
REMARK  200  A    between atoms: _479  and  _480
REMARK  201  A    between atoms: _485  and  _487
REMARK  202  A    between atoms: _487  and  _488
REMARK  203  A    between atoms: _487  and  _490
REMARK  204  A    between atoms: _490  and  _491
REMARK  205  A    between atoms: _495  and  _496
REMARK  206  A    between atoms: _501  and  _503
REMARK  207  A    between atoms: _503  and  _504
REMARK  208  A    between atoms: _503  and  _506
REMARK  209  A    between atoms: _509  and  _511
REMARK  210  A    between atoms: _511  and  _512
REMARK  211  A    between atoms: _511  and  _514
REMARK  212  A    between atoms: _514  and  _515
REMARK  213  A    between atoms: _520  and  _522
REMARK  214  A    between atoms: _522  and  _523
REMARK  215  A    between atoms: _522  and  _525
REMARK  216  A    between atoms: _525  and  _526
REMARK  217  A    between atoms: _529  and  _531
REMARK  218  A    between atoms: _531  and  _532
REMARK  219  A    between atoms: _531  and  _534
REMARK  220  A    between atoms: _534  and  _535
REMARK  221  A    between atoms: _538  and  _540
REMARK  222  A    between atoms: _540  and  _541
REMARK  223  A    between atoms: _543  and  _545
REMARK  224  A    between atoms: _545  and  _546
REMARK  225  A    between atoms: _545  and  _548
REMARK  226  A    between atoms: _548  and  _549
REMARK  227  A    between atoms: _549  and  _550
REMARK  228  A    between atoms: _550  and  _551
REMARK  229  A    between atoms: _560  and  _562
REMARK  230  A    between atoms: _562  and  _563
REMARK  231  A    between atoms: _562  and  _565
REMARK  232  A    between atoms: _565  and  _566
REMARK                            x       y       z     vdW  Elec       q    Type
REMARK                         _______ _______ _______ _____ _____    ______ ____
ROOT
ATOM      1  O   HOH     1      10.227  20.444  17.661  0.00  0.00    +0.000 OA
ENDROOT
TORSDOF 0
REMARK  Name = ../refined-set-2016/4zls/4zls_pocket.pdb
REMARK  232 active torsions:
REMARK  status: ('A' for Active; 'I' for Inactive)
REMARK    1  A    between atoms: _1  and  _3
REMARK    2  A    between atoms: _3  and  _4
REMARK    3  A    between atoms: _3  and  _6
REMARK    4  A    between atoms: _6  and  _7
REMARK    5  A    between atoms: _7  and  _8
REMARK    6  A    between atoms: _8  and  _9
REMARK    7  A    between atoms: _18  and  _20
REMARK    8  A    between atoms: _20  and  _21
REMARK    9  A    between atoms: _20  and  _23
REMARK   10  A    between atoms: _23  and  _24
REMARK   11  A    between atoms: _27  and  _29
REMARK   12  A    between atoms: _29  and  _30
REMARK   13  A    between atoms: _29  and  _32
REMARK   14  A    between atoms: _32  and  _33
REMARK   15  A    between atoms: _36  and  _38
REMARK   16  A    between atoms: _38  and  _39
REMARK   17  A    between atoms: _38  and  _41
REMARK   18  A    between atoms: _41  and  _42
REMARK   19  A    between atoms: _45  and  _47
REMARK   20  A    between atoms: _47  and  _48
REMARK   21  A    between atoms: _47  and  _50
REMARK   22  A    between atoms: _50  and  _51
REMARK   23  A    between atoms: _54  and  _56
REMARK   24  A    between atoms: _56  and  _57
REMARK   25  A    between atoms: _59  and  _61
REMARK   26  A    between atoms: _61  and  _62
REMARK   27  A    between atoms: _65  and  _67
REMARK   28  A    between atoms: _67  and  _68
REMARK   29  A    between atoms: _67  and  _70
REMARK   30  A    between atoms: _70  and  _71
REMARK   31  A    between atoms: _74  and  _76
REMARK   32  A    between atoms: _76  and  _77
REMARK   33  A    between atoms: _76  and  _79
REMARK   34  A    between atoms: _79  and  _80
REMARK   35  A    between atoms: _83  and  _85
REMARK   36  A    between atoms: _85  and  _86
REMARK   37  A    between atoms: _85  and  _88
REMARK   38  A    between atoms: _88  and  _89
REMARK   39  A    between atoms: _92  and  _94
REMARK   40  A    between atoms: _94  and  _95
REMARK   41  A    between atoms: _94  and  _97
REMARK   42  A    between atoms: _100  and  _102
REMARK   43  A    between atoms: _102  and  _103
REMARK   44  A    between atoms: _102  and  _105
REMARK   45  A    between atoms: _105  and  _106
REMARK   46  A    between atoms: _106  and  _107
REMARK   47  A    between atoms: _107  and  _108
REMARK   48  A    between atoms: _108  and  _109
REMARK   49  A    between atoms: _113  and  _115
REMARK   50  A    between atoms: _115  and  _116
REMARK   51  A    between atoms: _115  and  _118
REMARK   52  A    between atoms: _118  and  _119
REMARK   53  A    between atoms: _119  and  _120
REMARK   54  A    between atoms: _122  and  _124
REMARK   55  A    between atoms: _124  and  _125
REMARK   56  A    between atoms: _124  and  _127
REMARK   57  A    between atoms: _127  and  _128
REMARK   58  A    between atoms: _131  and  _133
REMARK   59  A    between atoms: _133  and  _134
REMARK   60  A    between atoms: _136  and  _138
REMARK   61  A    between atoms: _138  and  _139
REMARK   62  A    between atoms: _141  and  _143
REMARK   63  A    between atoms: _143  and  _144
REMARK   64  A    between atoms: _143  and  _146
REMARK   65  A    between atoms: _146  and  _147
REMARK   66  A    between atoms: _150  and  _152
REMARK   67  A    between atoms: _152  and  _153
REMARK   68  A    between atoms: _155  and  _157
REMARK   69  A    between atoms: _157  and  _158
REMARK   70  A    between atoms: _160  and  _162
REMARK   71  A    between atoms: _162  and  _163
REMARK   72  A    between atoms: _162  and  _165
REMARK   73  A    between atoms: _165  and  _166
REMARK   74  A    between atoms: _172  and  _174
REMARK   75  A    between atoms: _174  and  _175
REMARK   76  A    between atoms: _174  and  _177
REMARK   77  A    between atoms: _177  and  _178
REMARK   78  A    between atoms: _181  and  _183
REMARK   79  A    between atoms: _183  and  _184
REMARK   80  A    between atoms: _183  and  _186
REMARK   81  A    between atoms: _186  and  _187
REMARK   82  A    between atoms: _190  and  _192
REMARK   83  A    between atoms: _192  and  _193
REMARK   84  A    between atoms: _192  and  _195
REMARK   85  A    between atoms: _195  and  _196
REMARK   86  A    between atoms: _200  and  _201
REMARK   87  A    between atoms: _206  and  _208
REMARK   88  A    between atoms: _208  and  _209
REMARK   89  A    between atoms: _208  and  _211
REMARK   90  A    between atoms: _214  and  _216
REMARK   91  A    between atoms: _216  and  _217
REMARK   92  A    between atoms: _216  and  _219
REMARK   93  A    between atoms: _219  and  _220
REMARK   94  A    between atoms: _225  and  _227
REMARK   95  A    between atoms: _227  and  _228
REMARK   96  A    between atoms: _227  and  _230
REMARK   97  A    between atoms: _230  and  _231
REMARK   98  A    between atoms: _234  and  _236
REMARK   99  A    between atoms: _236  and  _237
REMARK  100  A    between atoms: _239  and  _241
REMARK  101  A    between atoms: _241  and  _242
REMARK  102  A    between atoms: _241  and  _244
REMARK  103  A    between atoms: _244  and  _245
REMARK  104  A    between atoms: _245  and  _246
REMARK  105  A    between atoms: _246  and  _247
REMARK  106  A    between atoms: _256  and  _258
REMARK  107  A    between atoms: _258  and  _259
REMARK  108  A    between atoms: _258  and  _261
REMARK  109  A    between atoms: _261  and  _262
REMARK  110  A    between atoms: _267  and  _269
REMARK  111  A    between atoms: _269  and  _270
REMARK  112  A    between atoms: _269  and  _272
REMARK  113  A    between atoms: _272  and  _273
REMARK  114  A    between atoms: _273  and  _274
REMARK  115  A    between atoms: _274  and  _275
REMARK  116  A    between atoms: _284  and  _286
REMARK  117  A    between atoms: _286  and  _287
REMARK  118  A    between atoms: _286  and  _289
REMARK  119  A    between atoms: _289  and  _290
REMARK  120  A    between atoms: _293  and  _295
REMARK  121  A    between atoms: _295  and  _296
REMARK  122  A    between atoms: _295  and  _298
REMARK  123  A    between atoms: _298  and  _299
REMARK  124  A    between atoms: _302  and  _304
REMARK  125  A    between atoms: _304  and  _305
REMARK  126  A    between atoms: _304  and  _307
REMARK  127  A    between atoms: _307  and  _308
REMARK  128  A    between atoms: _311  and  _313
REMARK  129  A    between atoms: _313  and  _314
REMARK  130  A    between atoms: _313  and  _316
REMARK  131  A    between atoms: _316  and  _317
REMARK  132  A    between atoms: _320  and  _322
REMARK  133  A    between atoms: _322  and  _323
REMARK  134  A    between atoms: _322  and  _325
REMARK  135  A    between atoms: _325  and  _326
REMARK  136  A    between atoms: _329  and  _331
REMARK  137  A    between atoms: _331  and  _332
REMARK  138  A    between atoms: _334  and  _336
REMARK  139  A    between atoms: _336  and  _337
REMARK  140  A    between atoms: _340  and  _342
REMARK  141  A    between atoms: _342  and  _343
REMARK  142  A    between atoms: _342  and  _345
REMARK  143  A    between atoms: _345  and  _346
REMARK  144  A    between atoms: _349  and  _351
REMARK  145  A    between atoms: _351  and  _352
REMARK  146  A    between atoms: _351  and  _354
REMARK  147  A    between atoms: _354  and  _355
REMARK  148  A    between atoms: _358  and  _360
REMARK  149  A    between atoms: _360  and  _361
REMARK  150  A    between atoms: _360  and  _363
REMARK  151  A    between atoms: _363  and  _364
REMARK  152  A    between atoms: _367  and  _369
REMARK  153  A    between atoms: _369  and  _370
REMARK  154  A    between atoms: _369  and  _372
REMARK  155  A    between atoms: _375  and  _377
REMARK  156  A    between atoms: _377  and  _378
REMARK  157  A    between atoms: _377  and  _380
REMARK  158  A    between atoms: _380  and  _381
REMARK  159  A    between atoms: _381  and  _382
REMARK  160  A    between atoms: _382  and  _383
REMARK  161  A    between atoms: _383  and  _384
REMARK  162  A    between atoms: _388  and  _390
REMARK  163  A    between atoms: _390  and  _391
REMARK  164  A    between atoms: _390  and  _393
REMARK  165  A    between atoms: _393  and  _394
REMARK  166  A    between atoms: _394  and  _395
REMARK  167  A    between atoms: _397  and  _399
REMARK  168  A    between atoms: _399  and  _400
REMARK  169  A    between atoms: _399  and  _402
REMARK  170  A    between atoms: _402  and  _403
REMARK  171  A    between atoms: _406  and  _408
REMARK  172  A    between atoms: _408  and  _409
REMARK  173  A    between atoms: _411  and  _413
REMARK  174  A    between atoms: _413  and  _414
REMARK  175  A    between atoms: _416  and  _418
REMARK  176  A    between atoms: _418  and  _419
REMARK  177  A    between atoms: _418  and  _421
REMARK  178  A    between atoms: _421  and  _422
REMARK  179  A    between atoms: _425  and  _427
REMARK  180  A    between atoms: _427  and  _428
REMARK  181  A    between atoms: _430  and  _432
REMARK  182  A    between atoms: _432  and  _433
REMARK  183  A    between atoms: _435  and  _437
REMARK  184  A    between atoms: _437  and  _438
REMARK  185  A    between atoms: _437  and  _440
REMARK  186  A    between atoms: _440  and  _441
REMARK  187  A    between atoms: _447  and  _449
REMARK  188  A    between atoms: _449  and  _450
REMARK  189  A    between atoms: _449  and  _452
REMARK  190  A    between atoms: _452  and  _453
REMARK  191  A    between atoms: _456  and  _458
REMARK  192  A    between atoms: _458  and  _459
REMARK  193  A    between atoms: _458  and  _461
REMARK  194  A    between atoms: _464  and  _466
REMARK  195  A    between atoms: _466  and  _467
REMARK  196  A    between atoms: _466  and  _469
REMARK  197  A    between atoms: _469  and  _470
REMARK  198  A    between atoms: _473  and  _475
REMARK  199  A    between atoms: _475  and  _476
REMARK  200  A    between atoms: _479  and  _480
REMARK  201  A    between atoms: _485  and  _487
REMARK  202  A    between atoms: _487  and  _488
REMARK  203  A    between atoms: _487  and  _490
REMARK  204  A    between atoms: _490  and  _491
REMARK  205  A    between atoms: _495  and  _496
REMARK  206  A    between atoms: _501  and  _503
REMARK  207  A    between atoms: _503  and  _504
REMARK  208  A    between atoms: _503  and  _506
REMARK  209  A    between atoms: _509  and  _511
REMARK  210  A    between atoms: _511  and  _512
REMARK  211  A    between atoms: _511  and  _514
REMARK  212  A    between atoms: _514  and  _515
REMARK  213  A    between atoms: _520  and  _522
REMARK  214  A    between atoms: _522  and  _523
REMARK  215  A    between atoms: _522  and  _525
REMARK  216  A    between atoms: _525  and  _526
REMARK  217  A    between atoms: _529  and  _531
REMARK  218  A    between atoms: _531  and  _532
REMARK  219  A    between atoms: _531  and  _534
REMARK  220  A    between atoms: _534  and  _535
REMARK  221  A    between atoms: _538  and  _540
REMARK  222  A    between atoms: _540  and  _541
REMARK  223  A    between atoms: _543  and  _545
REMARK  224  A    between atoms: _545  and  _546
REMARK  225  A    between atoms: _545  and  _548
REMARK  226  A    between atoms: _548  and  _549
REMARK  227  A    between atoms: _549  and  _550
REMARK  228  A    between atoms: _550  and  _551
REMARK  229  A    between atoms: _560  and  _562
REMARK  230  A    between atoms: _562  and  _563
REMARK  231  A    between atoms: _562  and  _565
REMARK  232  A    between atoms: _565  and  _566
REMARK                            x       y       z     vdW  Elec       q    Type
REMARK                         _______ _______ _______ _____ _____    ______ ____
ROOT
ATOM      1  O   HOH     1      25.493  26.294  20.026  0.00  0.00    +0.000 OA
ENDROOT
TORSDOF 0
REMARK  Name = ../refined-set-2016/4zls/4zls_pocket.pdb
REMARK  232 active torsions:
REMARK  status: ('A' for Active; 'I' for Inactive)
REMARK    1  A    between atoms: _1  and  _3
REMARK    2  A    between atoms: _3  and  _4
REMARK    3  A    between atoms: _3  and  _6
REMARK    4  A    between atoms: _6  and  _7
REMARK    5  A    between atoms: _7  and  _8
REMARK    6  A    between atoms: _8  and  _9
REMARK    7  A    between atoms: _18  and  _20
REMARK    8  A    between atoms: _20  and  _21
REMARK    9  A    between atoms: _20  and  _23
REMARK   10  A    between atoms: _23  and  _24
REMARK   11  A    between atoms: _27  and  _29
REMARK   12  A    between atoms: _29  and  _30
REMARK   13  A    between atoms: _29  and  _32
REMARK   14  A    between atoms: _32  and  _33
REMARK   15  A    between atoms: _36  and  _38
REMARK   16  A    between atoms: _38  and  _39
REMARK   17  A    between atoms: _38  and  _41
REMARK   18  A    between atoms: _41  and  _42
REMARK   19  A    between atoms: _45  and  _47
REMARK   20  A    between atoms: _47  and  _48
REMARK   21  A    between atoms: _47  and  _50
REMARK   22  A    between atoms: _50  and  _51
REMARK   23  A    between atoms: _54  and  _56
REMARK   24  A    between atoms: _56  and  _57
REMARK   25  A    between atoms: _59  and  _61
REMARK   26  A    between atoms: _61  and  _62
REMARK   27  A    between atoms: _65  and  _67
REMARK   28  A    between atoms: _67  and  _68
REMARK   29  A    between atoms: _67  and  _70
REMARK   30  A    between atoms: _70  and  _71
REMARK   31  A    between atoms: _74  and  _76
REMARK   32  A    between atoms: _76  and  _77
REMARK   33  A    between atoms: _76  and  _79
REMARK   34  A    between atoms: _79  and  _80
REMARK   35  A    between atoms: _83  and  _85
REMARK   36  A    between atoms: _85  and  _86
REMARK   37  A    between atoms: _85  and  _88
REMARK   38  A    between atoms: _88  and  _89
REMARK   39  A    between atoms: _92  and  _94
REMARK   40  A    between atoms: _94  and  _95
REMARK   41  A    between atoms: _94  and  _97
REMARK   42  A    between atoms: _100  and  _102
REMARK   43  A    between atoms: _102  and  _103
REMARK   44  A    between atoms: _102  and  _105
REMARK   45  A    between atoms: _105  and  _106
REMARK   46  A    between atoms: _106  and  _107
REMARK   47  A    between atoms: _107  and  _108
REMARK   48  A    between atoms: _108  and  _109
REMARK   49  A    between atoms: _113  and  _115
REMARK   50  A    between atoms: _115  and  _116
REMARK   51  A    between atoms: _115  and  _118
REMARK   52  A    between atoms: _118  and  _119
REMARK   53  A    between atoms: _119  and  _120
REMARK   54  A    between atoms: _122  and  _124
REMARK   55  A    between atoms: _124  and  _125
REMARK   56  A    between atoms: _124  and  _127
REMARK   57  A    between atoms: _127  and  _128
REMARK   58  A    between atoms: _131  and  _133
REMARK   59  A    between atoms: _133  and  _134
REMARK   60  A    between atoms: _136  and  _138
REMARK   61  A    between atoms: _138  and  _139
REMARK   62  A    between atoms: _141  and  _143
REMARK   63  A    between atoms: _143  and  _144
REMARK   64  A    between atoms: _143  and  _146
REMARK   65  A    between atoms: _146  and  _147
REMARK   66  A    between atoms: _150  and  _152
REMARK   67  A    between atoms: _152  and  _153
REMARK   68  A    between atoms: _155  and  _157
REMARK   69  A    between atoms: _157  and  _158
REMARK   70  A    between atoms: _160  and  _162
REMARK   71  A    between atoms: _162  and  _163
REMARK   72  A    between atoms: _162  and  _165
REMARK   73  A    between atoms: _165  and  _166
REMARK   74  A    between atoms: _172  and  _174
REMARK   75  A    between atoms: _174  and  _175
REMARK   76  A    between atoms: _174  and  _177
REMARK   77  A    between atoms: _177  and  _178
REMARK   78  A    between atoms: _181  and  _183
REMARK   79  A    between atoms: _183  and  _184
REMARK   80  A    between atoms: _183  and  _186
REMARK   81  A    between atoms: _186  and  _187
REMARK   82  A    between atoms: _190  and  _192
REMARK   83  A    between atoms: _192  and  _193
REMARK   84  A    between atoms: _192  and  _195
REMARK   85  A    between atoms: _195  and  _196
REMARK   86  A    between atoms: _200  and  _201
REMARK   87  A    between atoms: _206  and  _208
REMARK   88  A    between atoms: _208  and  _209
REMARK   89  A    between atoms: _208  and  _211
REMARK   90  A    between atoms: _214  and  _216
REMARK   91  A    between atoms: _216  and  _217
REMARK   92  A    between atoms: _216  and  _219
REMARK   93  A    between atoms: _219  and  _220
REMARK   94  A    between atoms: _225  and  _227
REMARK   95  A    between atoms: _227  and  _228
REMARK   96  A    between atoms: _227  and  _230
REMARK   97  A    between atoms: _230  and  _231
REMARK   98  A    between atoms: _234  and  _236
REMARK   99  A    between atoms: _236  and  _237
REMARK  100  A    between atoms: _239  and  _241
REMARK  101  A    between atoms: _241  and  _242
REMARK  102  A    between atoms: _241  and  _244
REMARK  103  A    between atoms: _244  and  _245
REMARK  104  A    between atoms: _245  and  _246
REMARK  105  A    between atoms: _246  and  _247
REMARK  106  A    between atoms: _256  and  _258
REMARK  107  A    between atoms: _258  and  _259
REMARK  108  A    between atoms: _258  and  _261
REMARK  109  A    between atoms: _261  and  _262
REMARK  110  A    between atoms: _267  and  _269
REMARK  111  A    between atoms: _269  and  _270
REMARK  112  A    between atoms: _269  and  _272
REMARK  113  A    between atoms: _272  and  _273
REMARK  114  A    between atoms: _273  and  _274
REMARK  115  A    between atoms: _274  and  _275
REMARK  116  A    between atoms: _284  and  _286
REMARK  117  A    between atoms: _286  and  _287
REMARK  118  A    between atoms: _286  and  _289
REMARK  119  A    between atoms: _289  and  _290
REMARK  120  A    between atoms: _293  and  _295
REMARK  121  A    between atoms: _295  and  _296
REMARK  122  A    between atoms: _295  and  _298
REMARK  123  A    between atoms: _298  and  _299
REMARK  124  A    between atoms: _302  and  _304
REMARK  125  A    between atoms: _304  and  _305
REMARK  126  A    between atoms: _304  and  _307
REMARK  127  A    between atoms: _307  and  _308
REMARK  128  A    between atoms: _311  and  _313
REMARK  129  A    between atoms: _313  and  _314
REMARK  130  A    between atoms: _313  and  _316
REMARK  131  A    between atoms: _316  and  _317
REMARK  132  A    between atoms: _320  and  _322
REMARK  133  A    between atoms: _322  and  _323
REMARK  134  A    between atoms: _322  and  _325
REMARK  135  A    between atoms: _325  and  _326
REMARK  136  A    between atoms: _329  and  _331
REMARK  137  A    between atoms: _331  and  _332
REMARK  138  A    between atoms: _334  and  _336
REMARK  139  A    between atoms: _336  and  _337
REMARK  140  A    between atoms: _340  and  _342
REMARK  141  A    between atoms: _342  and  _343
REMARK  142  A    between atoms: _342  and  _345
REMARK  143  A    between atoms: _345  and  _346
REMARK  144  A    between atoms: _349  and  _351
REMARK  145  A    between atoms: _351  and  _352
REMARK  146  A    between atoms: _351  and  _354
REMARK  147  A    between atoms: _354  and  _355
REMARK  148  A    between atoms: _358  and  _360
REMARK  149  A    between atoms: _360  and  _361
REMARK  150  A    between atoms: _360  and  _363
REMARK  151  A    between atoms: _363  and  _364
REMARK  152  A    between atoms: _367  and  _369
REMARK  153  A    between atoms: _369  and  _370
REMARK  154  A    between atoms: _369  and  _372
REMARK  155  A    between atoms: _375  and  _377
REMARK  156  A    between atoms: _377  and  _378
REMARK  157  A    between atoms: _377  and  _380
REMARK  158  A    between atoms: _380  and  _381
REMARK  159  A    between atoms: _381  and  _382
REMARK  160  A    between atoms: _382  and  _383
REMARK  161  A    between atoms: _383  and  _384
REMARK  162  A    between atoms: _388  and  _390
REMARK  163  A    between atoms: _390  and  _391
REMARK  164  A    between atoms: _390  and  _393
REMARK  165  A    between atoms: _393  and  _394
REMARK  166  A    between atoms: _394  and  _395
REMARK  167  A    between atoms: _397  and  _399
REMARK  168  A    between atoms: _399  and  _400
REMARK  169  A    between atoms: _399  and  _402
REMARK  170  A    between atoms: _402  and  _403
REMARK  171  A    between atoms: _406  and  _408
REMARK  172  A    between atoms: _408  and  _409
REMARK  173  A    between atoms: _411  and  _413
REMARK  174  A    between atoms: _413  and  _414
REMARK  175  A    between atoms: _416  and  _418
REMARK  176  A    between atoms: _418  and  _419
REMARK  177  A    between atoms: _418  and  _421
REMARK  178  A    between atoms: _421  and  _422
REMARK  179  A    between atoms: _425  and  _427
REMARK  180  A    between atoms: _427  and  _428
REMARK  181  A    between atoms: _430  and  _432
REMARK  182  A    between atoms: _432  and  _433
REMARK  183  A    between atoms: _435  and  _437
REMARK  184  A    between atoms: _437  and  _438
REMARK  185  A    between atoms: _437  and  _440
REMARK  186  A    between atoms: _440  and  _441
REMARK  187  A    between atoms: _447  and  _449
REMARK  188  A    between atoms: _449  and  _450
REMARK  189  A    between atoms: _449  and  _452
REMARK  190  A    between atoms: _452  and  _453
REMARK  191  A    between atoms: _456  and  _458
REMARK  192  A    between atoms: _458  and  _459
REMARK  193  A    between atoms: _458  and  _461
REMARK  194  A    between atoms: _464  and  _466
REMARK  195  A    between atoms: _466  and  _467
REMARK  196  A    between atoms: _466  and  _469
REMARK  197  A    between atoms: _469  and  _470
REMARK  198  A    between atoms: _473  and  _475
REMARK  199  A    between atoms: _475  and  _476
REMARK  200  A    between atoms: _479  and  _480
REMARK  201  A    between atoms: _485  and  _487
REMARK  202  A    between atoms: _487  and  _488
REMARK  203  A    between atoms: _487  and  _490
REMARK  204  A    between atoms: _490  and  _491
REMARK  205  A    between atoms: _495  and  _496
REMARK  206  A    between atoms: _501  and  _503
REMARK  207  A    between atoms: _503  and  _504
REMARK  208  A    between atoms: _503  and  _506
REMARK  209  A    between atoms: _509  and  _511
REMARK  210  A    between atoms: _511  and  _512
REMARK  211  A    between atoms: _511  and  _514
REMARK  212  A    between atoms: _514  and  _515
REMARK  213  A    between atoms: _520  and  _522
REMARK  214  A    between atoms: _522  and  _523
REMARK  215  A    between atoms: _522  and  _525
REMARK  216  A    between atoms: _525  and  _526
REMARK  217  A    between atoms: _529  and  _531
REMARK  218  A    between atoms: _531  and  _532
REMARK  219  A    between atoms: _531  and  _534
REMARK  220  A    between atoms: _534  and  _535
REMARK  221  A    between atoms: _538  and  _540
REMARK  222  A    between atoms: _540  and  _541
REMARK  223  A    between atoms: _543  and  _545
REMARK  224  A    between atoms: _545  and  _546
REMARK  225  A    between atoms: _545  and  _548
REMARK  226  A    between atoms: _548  and  _549
REMARK  227  A    between atoms: _549  and  _550
REMARK  228  A    between atoms: _550  and  _551
REMARK  229  A    between atoms: _560  and  _562
REMARK  230  A    between atoms: _562  and  _563
REMARK  231  A    between atoms: _562  and  _565
REMARK  232  A    between atoms: _565  and  _566
REMARK                            x       y       z     vdW  Elec       q    Type
REMARK                         _______ _______ _______ _____ _____    ______ ____
ROOT
ATOM      1  O   HOH     1      10.472  15.522  16.487  0.00  0.00    +0.000 OA
ENDROOT
TORSDOF 0
REMARK  Name = ../refined-set-2016/4zls/4zls_pocket.pdb
REMARK  232 active torsions:
REMARK  status: ('A' for Active; 'I' for Inactive)
REMARK    1  A    between atoms: _1  and  _3
REMARK    2  A    between atoms: _3  and  _4
REMARK    3  A    between atoms: _3  and  _6
REMARK    4  A    between atoms: _6  and  _7
REMARK    5  A    between atoms: _7  and  _8
REMARK    6  A    between atoms: _8  and  _9
REMARK    7  A    between atoms: _18  and  _20
REMARK    8  A    between atoms: _20  and  _21
REMARK    9  A    between atoms: _20  and  _23
REMARK   10  A    between atoms: _23  and  _24
REMARK   11  A    between atoms: _27  and  _29
REMARK   12  A    between atoms: _29  and  _30
REMARK   13  A    between atoms: _29  and  _32
REMARK   14  A    between atoms: _32  and  _33
REMARK   15  A    between atoms: _36  and  _38
REMARK   16  A    between atoms: _38  and  _39
REMARK   17  A    between atoms: _38  and  _41
REMARK   18  A    between atoms: _41  and  _42
REMARK   19  A    between atoms: _45  and  _47
REMARK   20  A    between atoms: _47  and  _48
REMARK   21  A    between atoms: _47  and  _50
REMARK   22  A    between atoms: _50  and  _51
REMARK   23  A    between atoms: _54  and  _56
REMARK   24  A    between atoms: _56  and  _57
REMARK   25  A    between atoms: _59  and  _61
REMARK   26  A    between atoms: _61  and  _62
REMARK   27  A    between atoms: _65  and  _67
REMARK   28  A    between atoms: _67  and  _68
REMARK   29  A    between atoms: _67  and  _70
REMARK   30  A    between atoms: _70  and  _71
REMARK   31  A    between atoms: _74  and  _76
REMARK   32  A    between atoms: _76  and  _77
REMARK   33  A    between atoms: _76  and  _79
REMARK   34  A    between atoms: _79  and  _80
REMARK   35  A    between atoms: _83  and  _85
REMARK   36  A    between atoms: _85  and  _86
REMARK   37  A    between atoms: _85  and  _88
REMARK   38  A    between atoms: _88  and  _89
REMARK   39  A    between atoms: _92  and  _94
REMARK   40  A    between atoms: _94  and  _95
REMARK   41  A    between atoms: _94  and  _97
REMARK   42  A    between atoms: _100  and  _102
REMARK   43  A    between atoms: _102  and  _103
REMARK   44  A    between atoms: _102  and  _105
REMARK   45  A    between atoms: _105  and  _106
REMARK   46  A    between atoms: _106  and  _107
REMARK   47  A    between atoms: _107  and  _108
REMARK   48  A    between atoms: _108  and  _109
REMARK   49  A    between atoms: _113  and  _115
REMARK   50  A    between atoms: _115  and  _116
REMARK   51  A    between atoms: _115  and  _118
REMARK   52  A    between atoms: _118  and  _119
REMARK   53  A    between atoms: _119  and  _120
REMARK   54  A    between atoms: _122  and  _124
REMARK   55  A    between atoms: _124  and  _125
REMARK   56  A    between atoms: _124  and  _127
REMARK   57  A    between atoms: _127  and  _128
REMARK   58  A    between atoms: _131  and  _133
REMARK   59  A    between atoms: _133  and  _134
REMARK   60  A    between atoms: _136  and  _138
REMARK   61  A    between atoms: _138  and  _139
REMARK   62  A    between atoms: _141  and  _143
REMARK   63  A    between atoms: _143  and  _144
REMARK   64  A    between atoms: _143  and  _146
REMARK   65  A    between atoms: _146  and  _147
REMARK   66  A    between atoms: _150  and  _152
REMARK   67  A    between atoms: _152  and  _153
REMARK   68  A    between atoms: _155  and  _157
REMARK   69  A    between atoms: _157  and  _158
REMARK   70  A    between atoms: _160  and  _162
REMARK   71  A    between atoms: _162  and  _163
REMARK   72  A    between atoms: _162  and  _165
REMARK   73  A    between atoms: _165  and  _166
REMARK   74  A    between atoms: _172  and  _174
REMARK   75  A    between atoms: _174  and  _175
REMARK   76  A    between atoms: _174  and  _177
REMARK   77  A    between atoms: _177  and  _178
REMARK   78  A    between atoms: _181  and  _183
REMARK   79  A    between atoms: _183  and  _184
REMARK   80  A    between atoms: _183  and  _186
REMARK   81  A    between atoms: _186  and  _187
REMARK   82  A    between atoms: _190  and  _192
REMARK   83  A    between atoms: _192  and  _193
REMARK   84  A    between atoms: _192  and  _195
REMARK   85  A    between atoms: _195  and  _196
REMARK   86  A    between atoms: _200  and  _201
REMARK   87  A    between atoms: _206  and  _208
REMARK   88  A    between atoms: _208  and  _209
REMARK   89  A    between atoms: _208  and  _211
REMARK   90  A    between atoms: _214  and  _216
REMARK   91  A    between atoms: _216  and  _217
REMARK   92  A    between atoms: _216  and  _219
REMARK   93  A    between atoms: _219  and  _220
REMARK   94  A    between atoms: _225  and  _227
REMARK   95  A    between atoms: _227  and  _228
REMARK   96  A    between atoms: _227  and  _230
REMARK   97  A    between atoms: _230  and  _231
REMARK   98  A    between atoms: _234  and  _236
REMARK   99  A    between atoms: _236  and  _237
REMARK  100  A    between atoms: _239  and  _241
REMARK  101  A    between atoms: _241  and  _242
REMARK  102  A    between atoms: _241  and  _244
REMARK  103  A    between atoms: _244  and  _245
REMARK  104  A    between atoms: _245  and  _246
REMARK  105  A    between atoms: _246  and  _247
REMARK  106  A    between atoms: _256  and  _258
REMARK  107  A    between atoms: _258  and  _259
REMARK  108  A    between atoms: _258  and  _261
REMARK  109  A    between atoms: _261  and  _262
REMARK  110  A    between atoms: _267  and  _269
REMARK  111  A    between atoms: _269  and  _270
REMARK  112  A    between atoms: _269  and  _272
REMARK  113  A    between atoms: _272  and  _273
REMARK  114  A    between atoms: _273  and  _274
REMARK  115  A    between atoms: _274  and  _275
REMARK  116  A    between atoms: _284  and  _286
REMARK  117  A    between atoms: _286  and  _287
REMARK  118  A    between atoms: _286  and  _289
REMARK  119  A    between atoms: _289  and  _290
REMARK  120  A    between atoms: _293  and  _295
REMARK  121  A    between atoms: _295  and  _296
REMARK  122  A    between atoms: _295  and  _298
REMARK  123  A    between atoms: _298  and  _299
REMARK  124  A    between atoms: _302  and  _304
REMARK  125  A    between atoms: _304  and  _305
REMARK  126  A    between atoms: _304  and  _307
REMARK  127  A    between atoms: _307  and  _308
REMARK  128  A    between atoms: _311  and  _313
REMARK  129  A    between atoms: _313  and  _314
REMARK  130  A    between atoms: _313  and  _316
REMARK  131  A    between atoms: _316  and  _317
REMARK  132  A    between atoms: _320  and  _322
REMARK  133  A    between atoms: _322  and  _323
REMARK  134  A    between atoms: _322  and  _325
REMARK  135  A    between atoms: _325  and  _326
REMARK  136  A    between atoms: _329  and  _331
REMARK  137  A    between atoms: _331  and  _332
REMARK  138  A    between atoms: _334  and  _336
REMARK  139  A    between atoms: _336  and  _337
REMARK  140  A    between atoms: _340  and  _342
REMARK  141  A    between atoms: _342  and  _343
REMARK  142  A    between atoms: _342  and  _345
REMARK  143  A    between atoms: _345  and  _346
REMARK  144  A    between atoms: _349  and  _351
REMARK  145  A    between atoms: _351  and  _352
REMARK  146  A    between atoms: _351  and  _354
REMARK  147  A    between atoms: _354  and  _355
REMARK  148  A    between atoms: _358  and  _360
REMARK  149  A    between atoms: _360  and  _361
REMARK  150  A    between atoms: _360  and  _363
REMARK  151  A    between atoms: _363  and  _364
REMARK  152  A    between atoms: _367  and  _369
REMARK  153  A    between atoms: _369  and  _370
REMARK  154  A    between atoms: _369  and  _372
REMARK  155  A    between atoms: _375  and  _377
REMARK  156  A    between atoms: _377  and  _378
REMARK  157  A    between atoms: _377  and  _380
REMARK  158  A    between atoms: _380  and  _381
REMARK  159  A    between atoms: _381  and  _382
REMARK  160  A    between atoms: _382  and  _383
REMARK  161  A    between atoms: _383  and  _384
REMARK  162  A    between atoms: _388  and  _390
REMARK  163  A    between atoms: _390  and  _391
REMARK  164  A    between atoms: _390  and  _393
REMARK  165  A    between atoms: _393  and  _394
REMARK  166  A    between atoms: _394  and  _395
REMARK  167  A    between atoms: _397  and  _399
REMARK  168  A    between atoms: _399  and  _400
REMARK  169  A    between atoms: _399  and  _402
REMARK  170  A    between atoms: _402  and  _403
REMARK  171  A    between atoms: _406  and  _408
REMARK  172  A    between atoms: _408  and  _409
REMARK  173  A    between atoms: _411  and  _413
REMARK  174  A    between atoms: _413  and  _414
REMARK  175  A    between atoms: _416  and  _418
REMARK  176  A    between atoms: _418  and  _419
REMARK  177  A    between atoms: _418  and  _421
REMARK  178  A    between atoms: _421  and  _422
REMARK  179  A    between atoms: _425  and  _427
REMARK  180  A    between atoms: _427  and  _428
REMARK  181  A    between atoms: _430  and  _432
REMARK  182  A    between atoms: _432  and  _433
REMARK  183  A    between atoms: _435  and  _437
REMARK  184  A    between atoms: _437  and  _438
REMARK  185  A    between atoms: _437  and  _440
REMARK  186  A    between atoms: _440  and  _441
REMARK  187  A    between atoms: _447  and  _449
REMARK  188  A    between atoms: _449  and  _450
REMARK  189  A    between atoms: _449  and  _452
REMARK  190  A    between atoms: _452  and  _453
REMARK  191  A    between atoms: _456  and  _458
REMARK  192  A    between atoms: _458  and  _459
REMARK  193  A    between atoms: _458  and  _461
REMARK  194  A    between atoms: _464  and  _466
REMARK  195  A    between atoms: _466  and  _467
REMARK  196  A    between atoms: _466  and  _469
REMARK  197  A    between atoms: _469  and  _470
REMARK  198  A    between atoms: _473  and  _475
REMARK  199  A    between atoms: _475  and  _476
REMARK  200  A    between atoms: _479  and  _480
REMARK  201  A    between atoms: _485  and  _487
REMARK  202  A    between atoms: _487  and  _488
REMARK  203  A    between atoms: _487  and  _490
REMARK  204  A    between atoms: _490  and  _491
REMARK  205  A    between atoms: _495  and  _496
REMARK  206  A    between atoms: _501  and  _503
REMARK  207  A    between atoms: _503  and  _504
REMARK  208  A    between atoms: _503  and  _506
REMARK  209  A    between atoms: _509  and  _511
REMARK  210  A    between atoms: _511  and  _512
REMARK  211  A    between atoms: _511  and  _514
REMARK  212  A    between atoms: _514  and  _515
REMARK  213  A    between atoms: _520  and  _522
REMARK  214  A    between atoms: _522  and  _523
REMARK  215  A    between atoms: _522  and  _525
REMARK  216  A    between atoms: _525  and  _526
REMARK  217  A    between atoms: _529  and  _531
REMARK  218  A    between atoms: _531  and  _532
REMARK  219  A    between atoms: _531  and  _534
REMARK  220  A    between atoms: _534  and  _535
REMARK  221  A    between atoms: _538  and  _540
REMARK  222  A    between atoms: _540  and  _541
REMARK  223  A    between atoms: _543  and  _545
REMARK  224  A    between atoms: _545  and  _546
REMARK  225  A    between atoms: _545  and  _548
REMARK  226  A    between atoms: _548  and  _549
REMARK  227  A    between atoms: _549  and  _550
REMARK  228  A    between atoms: _550  and  _551
REMARK  229  A    between atoms: _560  and  _562
REMARK  230  A    between atoms: _562  and  _563
REMARK  231  A    between atoms: _562  and  _565
REMARK  232  A    between atoms: _565  and  _566
REMARK                            x       y       z     vdW  Elec       q    Type
REMARK                         _______ _______ _______ _____ _____    ______ ____
ROOT
ATOM      1  O   HOH     1      25.175  25.413  22.724  0.00  0.00    +0.000 OA
ENDROOT
TORSDOF 0
REMARK  Name = ../refined-set-2016/4zls/4zls_pocket.pdb
REMARK  232 active torsions:
REMARK  status: ('A' for Active; 'I' for Inactive)
REMARK    1  A    between atoms: _1  and  _3
REMARK    2  A    between atoms: _3  and  _4
REMARK    3  A    between atoms: _3  and  _6
REMARK    4  A    between atoms: _6  and  _7
REMARK    5  A    between atoms: _7  and  _8
REMARK    6  A    between atoms: _8  and  _9
REMARK    7  A    between atoms: _18  and  _20
REMARK    8  A    between atoms: _20  and  _21
REMARK    9  A    between atoms: _20  and  _23
REMARK   10  A    between atoms: _23  and  _24
REMARK   11  A    between atoms: _27  and  _29
REMARK   12  A    between atoms: _29  and  _30
REMARK   13  A    between atoms: _29  and  _32
REMARK   14  A    between atoms: _32  and  _33
REMARK   15  A    between atoms: _36  and  _38
REMARK   16  A    between atoms: _38  and  _39
REMARK   17  A    between atoms: _38  and  _41
REMARK   18  A    between atoms: _41  and  _42
REMARK   19  A    between atoms: _45  and  _47
REMARK   20  A    between atoms: _47  and  _48
REMARK   21  A    between atoms: _47  and  _50
REMARK   22  A    between atoms: _50  and  _51
REMARK   23  A    between atoms: _54  and  _56
REMARK   24  A    between atoms: _56  and  _57
REMARK   25  A    between atoms: _59  and  _61
REMARK   26  A    between atoms: _61  and  _62
REMARK   27  A    between atoms: _65  and  _67
REMARK   28  A    between atoms: _67  and  _68
REMARK   29  A    between atoms: _67  and  _70
REMARK   30  A    between atoms: _70  and  _71
REMARK   31  A    between atoms: _74  and  _76
REMARK   32  A    between atoms: _76  and  _77
REMARK   33  A    between atoms: _76  and  _79
REMARK   34  A    between atoms: _79  and  _80
REMARK   35  A    between atoms: _83  and  _85
REMARK   36  A    between atoms: _85  and  _86
REMARK   37  A    between atoms: _85  and  _88
REMARK   38  A    between atoms: _88  and  _89
REMARK   39  A    between atoms: _92  and  _94
REMARK   40  A    between atoms: _94  and  _95
REMARK   41  A    between atoms: _94  and  _97
REMARK   42  A    between atoms: _100  and  _102
REMARK   43  A    between atoms: _102  and  _103
REMARK   44  A    between atoms: _102  and  _105
REMARK   45  A    between atoms: _105  and  _106
REMARK   46  A    between atoms: _106  and  _107
REMARK   47  A    between atoms: _107  and  _108
REMARK   48  A    between atoms: _108  and  _109
REMARK   49  A    between atoms: _113  and  _115
REMARK   50  A    between atoms: _115  and  _116
REMARK   51  A    between atoms: _115  and  _118
REMARK   52  A    between atoms: _118  and  _119
REMARK   53  A    between atoms: _119  and  _120
REMARK   54  A    between atoms: _122  and  _124
REMARK   55  A    between atoms: _124  and  _125
REMARK   56  A    between atoms: _124  and  _127
REMARK   57  A    between atoms: _127  and  _128
REMARK   58  A    between atoms: _131  and  _133
REMARK   59  A    between atoms: _133  and  _134
REMARK   60  A    between atoms: _136  and  _138
REMARK   61  A    between atoms: _138  and  _139
REMARK   62  A    between atoms: _141  and  _143
REMARK   63  A    between atoms: _143  and  _144
REMARK   64  A    between atoms: _143  and  _146
REMARK   65  A    between atoms: _146  and  _147
REMARK   66  A    between atoms: _150  and  _152
REMARK   67  A    between atoms: _152  and  _153
REMARK   68  A    between atoms: _155  and  _157
REMARK   69  A    between atoms: _157  and  _158
REMARK   70  A    between atoms: _160  and  _162
REMARK   71  A    between atoms: _162  and  _163
REMARK   72  A    between atoms: _162  and  _165
REMARK   73  A    between atoms: _165  and  _166
REMARK   74  A    between atoms: _172  and  _174
REMARK   75  A    between atoms: _174  and  _175
REMARK   76  A    between atoms: _174  and  _177
REMARK   77  A    between atoms: _177  and  _178
REMARK   78  A    between atoms: _181  and  _183
REMARK   79  A    between atoms: _183  and  _184
REMARK   80  A    between atoms: _183  and  _186
REMARK   81  A    between atoms: _186  and  _187
REMARK   82  A    between atoms: _190  and  _192
REMARK   83  A    between atoms: _192  and  _193
REMARK   84  A    between atoms: _192  and  _195
REMARK   85  A    between atoms: _195  and  _196
REMARK   86  A    between atoms: _200  and  _201
REMARK   87  A    between atoms: _206  and  _208
REMARK   88  A    between atoms: _208  and  _209
REMARK   89  A    between atoms: _208  and  _211
REMARK   90  A    between atoms: _214  and  _216
REMARK   91  A    between atoms: _216  and  _217
REMARK   92  A    between atoms: _216  and  _219
REMARK   93  A    between atoms: _219  and  _220
REMARK   94  A    between atoms: _225  and  _227
REMARK   95  A    between atoms: _227  and  _228
REMARK   96  A    between atoms: _227  and  _230
REMARK   97  A    between atoms: _230  and  _231
REMARK   98  A    between atoms: _234  and  _236
REMARK   99  A    between atoms: _236  and  _237
REMARK  100  A    between atoms: _239  and  _241
REMARK  101  A    between atoms: _241  and  _242
REMARK  102  A    between atoms: _241  and  _244
REMARK  103  A    between atoms: _244  and  _245
REMARK  104  A    between atoms: _245  and  _246
REMARK  105  A    between atoms: _246  and  _247
REMARK  106  A    between atoms: _256  and  _258
REMARK  107  A    between atoms: _258  and  _259
REMARK  108  A    between atoms: _258  and  _261
REMARK  109  A    between atoms: _261  and  _262
REMARK  110  A    between atoms: _267  and  _269
REMARK  111  A    between atoms: _269  and  _270
REMARK  112  A    between atoms: _269  and  _272
REMARK  113  A    between atoms: _272  and  _273
REMARK  114  A    between atoms: _273  and  _274
REMARK  115  A    between atoms: _274  and  _275
REMARK  116  A    between atoms: _284  and  _286
REMARK  117  A    between atoms: _286  and  _287
REMARK  118  A    between atoms: _286  and  _289
REMARK  119  A    between atoms: _289  and  _290
REMARK  120  A    between atoms: _293  and  _295
REMARK  121  A    between atoms: _295  and  _296
REMARK  122  A    between atoms: _295  and  _298
REMARK  123  A    between atoms: _298  and  _299
REMARK  124  A    between atoms: _302  and  _304
REMARK  125  A    between atoms: _304  and  _305
REMARK  126  A    between atoms: _304  and  _307
REMARK  127  A    between atoms: _307  and  _308
REMARK  128  A    between atoms: _311  and  _313
REMARK  129  A    between atoms: _313  and  _314
REMARK  130  A    between atoms: _313  and  _316
REMARK  131  A    between atoms: _316  and  _317
REMARK  132  A    between atoms: _320  and  _322
REMARK  133  A    between atoms: _322  and  _323
REMARK  134  A    between atoms: _322  and  _325
REMARK  135  A    between atoms: _325  and  _326
REMARK  136  A    between atoms: _329  and  _331
REMARK  137  A    between atoms: _331  and  _332
REMARK  138  A    between atoms: _334  and  _336
REMARK  139  A    between atoms: _336  and  _337
REMARK  140  A    between atoms: _340  and  _342
REMARK  141  A    between atoms: _342  and  _343
REMARK  142  A    between atoms: _342  and  _345
REMARK  143  A    between atoms: _345  and  _346
REMARK  144  A    between atoms: _349  and  _351
REMARK  145  A    between atoms: _351  and  _352
REMARK  146  A    between atoms: _351  and  _354
REMARK  147  A    between atoms: _354  and  _355
REMARK  148  A    between atoms: _358  and  _360
REMARK  149  A    between atoms: _360  and  _361
REMARK  150  A    between atoms: _360  and  _363
REMARK  151  A    between atoms: _363  and  _364
REMARK  152  A    between atoms: _367  and  _369
REMARK  153  A    between atoms: _369  and  _370
REMARK  154  A    between atoms: _369  and  _372
REMARK  155  A    between atoms: _375  and  _377
REMARK  156  A    between atoms: _377  and  _378
REMARK  157  A    between atoms: _377  and  _380
REMARK  158  A    between atoms: _380  and  _381
REMARK  159  A    between atoms: _381  and  _382
REMARK  160  A    between atoms: _382  and  _383
REMARK  161  A    between atoms: _383  and  _384
REMARK  162  A    between atoms: _388  and  _390
REMARK  163  A    between atoms: _390  and  _391
REMARK  164  A    between atoms: _390  and  _393
REMARK  165  A    between atoms: _393  and  _394
REMARK  166  A    between atoms: _394  and  _395
REMARK  167  A    between atoms: _397  and  _399
REMARK  168  A    between atoms: _399  and  _400
REMARK  169  A    between atoms: _399  and  _402
REMARK  170  A    between atoms: _402  and  _403
REMARK  171  A    between atoms: _406  and  _408
REMARK  172  A    between atoms: _408  and  _409
REMARK  173  A    between atoms: _411  and  _413
REMARK  174  A    between atoms: _413  and  _414
REMARK  175  A    between atoms: _416  and  _418
REMARK  176  A    between atoms: _418  and  _419
REMARK  177  A    between atoms: _418  and  _421
REMARK  178  A    between atoms: _421  and  _422
REMARK  179  A    between atoms: _425  and  _427
REMARK  180  A    between atoms: _427  and  _428
REMARK  181  A    between atoms: _430  and  _432
REMARK  182  A    between atoms: _432  and  _433
REMARK  183  A    between atoms: _435  and  _437
REMARK  184  A    between atoms: _437  and  _438
REMARK  185  A    between atoms: _437  and  _440
REMARK  186  A    between atoms: _440  and  _441
REMARK  187  A    between atoms: _447  and  _449
REMARK  188  A    between atoms: _449  and  _450
REMARK  189  A    between atoms: _449  and  _452
REMARK  190  A    between atoms: _452  and  _453
REMARK  191  A    between atoms: _456  and  _458
REMARK  192  A    between atoms: _458  and  _459
REMARK  193  A    between atoms: _458  and  _461
REMARK  194  A    between atoms: _464  and  _466
REMARK  195  A    between atoms: _466  and  _467
REMARK  196  A    between atoms: _466  and  _469
REMARK  197  A    between atoms: _469  and  _470
REMARK  198  A    between atoms: _473  and  _475
REMARK  199  A    between atoms: _475  and  _476
REMARK  200  A    between atoms: _479  and  _480
REMARK  201  A    between atoms: _485  and  _487
REMARK  202  A    between atoms: _487  and  _488
REMARK  203  A    between atoms: _487  and  _490
REMARK  204  A    between atoms: _490  and  _491
REMARK  205  A    between atoms: _495  and  _496
REMARK  206  A    between atoms: _501  and  _503
REMARK  207  A    between atoms: _503  and  _504
REMARK  208  A    between atoms: _503  and  _506
REMARK  209  A    between atoms: _509  and  _511
REMARK  210  A    between atoms: _511  and  _512
REMARK  211  A    between atoms: _511  and  _514
REMARK  212  A    between atoms: _514  and  _515
REMARK  213  A    between atoms: _520  and  _522
REMARK  214  A    between atoms: _522  and  _523
REMARK  215  A    between atoms: _522  and  _525
REMARK  216  A    between atoms: _525  and  _526
REMARK  217  A    between atoms: _529  and  _531
REMARK  218  A    between atoms: _531  and  _532
REMARK  219  A    between atoms: _531  and  _534
REMARK  220  A    between atoms: _534  and  _535
REMARK  221  A    between atoms: _538  and  _540
REMARK  222  A    between atoms: _540  and  _541
REMARK  223  A    between atoms: _543  and  _545
REMARK  224  A    between atoms: _545  and  _546
REMARK  225  A    between atoms: _545  and  _548
REMARK  226  A    between atoms: _548  and  _549
REMARK  227  A    between atoms: _549  and  _550
REMARK  228  A    between atoms: _550  and  _551
REMARK  229  A    between atoms: _560  and  _562
REMARK  230  A    between atoms: _562  and  _563
REMARK  231  A    between atoms: _562  and  _565
REMARK  232  A    between atoms: _565  and  _566
REMARK                            x       y       z     vdW  Elec       q    Type
REMARK                         _______ _______ _______ _____ _____    ______ ____
ROOT
ATOM      1  O   HOH     1      12.540  16.580  11.766  0.00  0.00    +0.000 OA
ENDROOT
TORSDOF 0
