REMARK  Name = ../refined-set-2016/2p2a/2p2a_pocket.pdb
REMARK  234 active torsions:
REMARK  status: ('A' for Active; 'I' for Inactive)
REMARK    1  A    between atoms: _1  and  _3
REMARK    2  A    between atoms: _3  and  _4
REMARK    3  A    between atoms: _3  and  _6
REMARK    4  A    between atoms: _6  and  _7
REMARK    5  A    between atoms: _10  and  _12
REMARK    6  A    between atoms: _12  and  _13
REMARK    7  A    between atoms: _12  and  _15
REMARK    8  A    between atoms: _15  and  _16
REMARK    9  A    between atoms: _19  and  _21
REMARK   10  A    between atoms: _21  and  _22
REMARK   11  A    between atoms: _21  and  _24
REMARK   12  A    between atoms: _24  and  _25
REMARK   13  A    between atoms: _25  and  _26
REMARK   14  A    between atoms: _29  and  _31
REMARK   15  A    between atoms: _31  and  _32
REMARK   16  A    between atoms: _31  and  _34
REMARK   17  A    between atoms: _34  and  _35
REMARK   18  A    between atoms: _38  and  _39
REMARK   19  A    between atoms: _44  and  _46
REMARK   20  A    between atoms: _46  and  _47
REMARK   21  A    between atoms: _46  and  _49
REMARK   22  A    between atoms: _49  and  _50
REMARK   23  A    between atoms: _55  and  _56
REMARK   24  A    between atoms: _58  and  _60
REMARK   25  A    between atoms: _60  and  _61
REMARK   26  A    between atoms: _60  and  _63
REMARK   27  A    between atoms: _66  and  _68
REMARK   28  A    between atoms: _68  and  _69
REMARK   29  A    between atoms: _68  and  _71
REMARK   30  A    between atoms: _71  and  _72
REMARK   31  A    between atoms: _72  and  _73
REMARK   32  A    between atoms: _73  and  _74
REMARK   33  A    between atoms: _74  and  _75
REMARK   34  A    between atoms: _79  and  _81
REMARK   35  A    between atoms: _81  and  _82
REMARK   36  A    between atoms: _81  and  _84
REMARK   37  A    between atoms: _84  and  _85
REMARK   38  A    between atoms: _90  and  _91
REMARK   39  A    between atoms: _93  and  _95
REMARK   40  A    between atoms: _95  and  _96
REMARK   41  A    between atoms: _98  and  _100
REMARK   42  A    between atoms: _100  and  _101
REMARK   43  A    between atoms: _104  and  _106
REMARK   44  A    between atoms: _106  and  _107
REMARK   45  A    between atoms: _106  and  _109
REMARK   46  A    between atoms: _109  and  _110
REMARK   47  A    between atoms: _110  and  _111
REMARK   48  A    between atoms: _113  and  _115
REMARK   49  A    between atoms: _115  and  _116
REMARK   50  A    between atoms: _115  and  _118
REMARK   51  A    between atoms: _121  and  _123
REMARK   52  A    between atoms: _123  and  _124
REMARK   53  A    between atoms: _128  and  _129
REMARK   54  A    between atoms: _134  and  _136
REMARK   55  A    between atoms: _136  and  _137
REMARK   56  A    between atoms: _136  and  _139
REMARK   57  A    between atoms: _139  and  _140
REMARK   58  A    between atoms: _143  and  _145
REMARK   59  A    between atoms: _145  and  _146
REMARK   60  A    between atoms: _145  and  _148
REMARK   61  A    between atoms: _148  and  _149
REMARK   62  A    between atoms: _152  and  _154
REMARK   63  A    between atoms: _154  and  _155
REMARK   64  A    between atoms: _154  and  _157
REMARK   65  A    between atoms: _157  and  _158
REMARK   66  A    between atoms: _161  and  _163
REMARK   67  A    between atoms: _163  and  _164
REMARK   68  A    between atoms: _163  and  _166
REMARK   69  A    between atoms: _166  and  _167
REMARK   70  A    between atoms: _170  and  _172
REMARK   71  A    between atoms: _172  and  _173
REMARK   72  A    between atoms: _172  and  _175
REMARK   73  A    between atoms: _175  and  _176
REMARK   74  A    between atoms: _176  and  _177
REMARK   75  A    between atoms: _177  and  _178
REMARK   76  A    between atoms: _187  and  _189
REMARK   77  A    between atoms: _189  and  _190
REMARK   78  A    between atoms: _189  and  _192
REMARK   79  A    between atoms: _192  and  _193
REMARK   80  A    between atoms: _199  and  _201
REMARK   81  A    between atoms: _201  and  _202
REMARK   82  A    between atoms: _201  and  _204
REMARK   83  A    between atoms: _204  and  _205
REMARK   84  A    between atoms: _205  and  _206
REMARK   85  A    between atoms: _208  and  _210
REMARK   86  A    between atoms: _210  and  _211
REMARK   87  A    between atoms: _210  and  _213
REMARK   88  A    between atoms: _213  and  _214
REMARK   89  A    between atoms: _217  and  _219
REMARK   90  A    between atoms: _219  and  _220
REMARK   91  A    between atoms: _222  and  _224
REMARK   92  A    between atoms: _224  and  _225
REMARK   93  A    between atoms: _224  and  _227
REMARK   94  A    between atoms: _227  and  _228
REMARK   95  A    between atoms: _231  and  _233
REMARK   96  A    between atoms: _233  and  _234
REMARK   97  A    between atoms: _233  and  _236
REMARK   98  A    between atoms: _236  and  _237
REMARK   99  A    between atoms: _239  and  _241
REMARK  100  A    between atoms: _241  and  _242
REMARK  101  A    between atoms: _244  and  _246
REMARK  102  A    between atoms: _246  and  _247
REMARK  103  A    between atoms: _246  and  _249
REMARK  104  A    between atoms: _249  and  _250
REMARK  105  A    between atoms: _253  and  _255
REMARK  106  A    between atoms: _255  and  _256
REMARK  107  A    between atoms: _255  and  _258
REMARK  108  A    between atoms: _258  and  _259
REMARK  109  A    between atoms: _262  and  _264
REMARK  110  A    between atoms: _264  and  _265
REMARK  111  A    between atoms: _264  and  _267
REMARK  112  A    between atoms: _267  and  _268
REMARK  113  A    between atoms: _271  and  _273
REMARK  114  A    between atoms: _273  and  _274
REMARK  115  A    between atoms: _273  and  _276
REMARK  116  A    between atoms: _276  and  _277
REMARK  117  A    between atoms: _279  and  _281
REMARK  118  A    between atoms: _281  and  _282
REMARK  119  A    between atoms: _284  and  _286
REMARK  120  A    between atoms: _286  and  _287
REMARK  121  A    between atoms: _286  and  _289
REMARK  122  A    between atoms: _289  and  _290
REMARK  123  A    between atoms: _292  and  _294
REMARK  124  A    between atoms: _294  and  _295
REMARK  125  A    between atoms: _294  and  _297
REMARK  126  A    between atoms: _297  and  _298
REMARK  127  A    between atoms: _301  and  _303
REMARK  128  A    between atoms: _303  and  _304
REMARK  129  A    between atoms: _303  and  _306
REMARK  130  A    between atoms: _306  and  _307
REMARK  131  A    between atoms: _307  and  _308
REMARK  132  A    between atoms: _308  and  _309
REMARK  133  A    between atoms: _309  and  _310
REMARK  134  A    between atoms: _314  and  _316
REMARK  135  A    between atoms: _316  and  _317
REMARK  136  A    between atoms: _316  and  _319
REMARK  137  A    between atoms: _319  and  _320
REMARK  138  A    between atoms: _320  and  _321
REMARK  139  A    between atoms: _324  and  _326
REMARK  140  A    between atoms: _326  and  _327
REMARK  141  A    between atoms: _326  and  _329
REMARK  142  A    between atoms: _329  and  _330
REMARK  143  A    between atoms: _336  and  _338
REMARK  144  A    between atoms: _338  and  _339
REMARK  145  A    between atoms: _338  and  _341
REMARK  146  A    between atoms: _341  and  _342
REMARK  147  A    between atoms: _348  and  _350
REMARK  148  A    between atoms: _350  and  _351
REMARK  149  A    between atoms: _350  and  _353
REMARK  150  A    between atoms: _356  and  _358
REMARK  151  A    between atoms: _358  and  _359
REMARK  152  A    between atoms: _358  and  _361
REMARK  153  A    between atoms: _361  and  _362
REMARK  154  A    between atoms: _365  and  _367
REMARK  155  A    between atoms: _367  and  _368
REMARK  156  A    between atoms: _371  and  _373
REMARK  157  A    between atoms: _373  and  _374
REMARK  158  A    between atoms: _373  and  _376
REMARK  159  A    between atoms: _379  and  _381
REMARK  160  A    between atoms: _381  and  _382
REMARK  161  A    between atoms: _381  and  _384
REMARK  162  A    between atoms: _384  and  _385
REMARK  163  A    between atoms: _390  and  _391
REMARK  164  A    between atoms: _393  and  _395
REMARK  165  A    between atoms: _395  and  _396
REMARK  166  A    between atoms: _395  and  _398
REMARK  167  A    between atoms: _398  and  _399
REMARK  168  A    between atoms: _402  and  _404
REMARK  169  A    between atoms: _404  and  _405
REMARK  170  A    between atoms: _404  and  _407
REMARK  171  A    between atoms: _407  and  _408
REMARK  172  A    between atoms: _411  and  _413
REMARK  173  A    between atoms: _413  and  _414
REMARK  174  A    between atoms: _413  and  _416
REMARK  175  A    between atoms: _416  and  _417
REMARK  176  A    between atoms: _417  and  _418
REMARK  177  A    between atoms: _421  and  _423
REMARK  178  A    between atoms: _423  and  _424
REMARK  179  A    between atoms: _423  and  _426
REMARK  180  A    between atoms: _426  and  _427
REMARK  181  A    between atoms: _429  and  _431
REMARK  182  A    between atoms: _431  and  _432
REMARK  183  A    between atoms: _431  and  _434
REMARK  184  A    between atoms: _434  and  _435
REMARK  185  A    between atoms: _438  and  _440
REMARK  186  A    between atoms: _440  and  _441
REMARK  187  A    between atoms: _440  and  _443
REMARK  188  A    between atoms: _443  and  _444
REMARK  189  A    between atoms: _444  and  _445
REMARK  190  A    between atoms: _447  and  _449
REMARK  191  A    between atoms: _449  and  _450
REMARK  192  A    between atoms: _449  and  _452
REMARK  193  A    between atoms: _452  and  _453
REMARK  194  A    between atoms: _458  and  _460
REMARK  195  A    between atoms: _460  and  _461
REMARK  196  A    between atoms: _460  and  _463
REMARK  197  A    between atoms: _463  and  _464
REMARK  198  A    between atoms: _464  and  _465
REMARK  199  A    between atoms: _468  and  _470
REMARK  200  A    between atoms: _470  and  _471
REMARK  201  A    between atoms: _470  and  _473
REMARK  202  A    between atoms: _473  and  _474
REMARK  203  A    between atoms: _479  and  _480
REMARK  204  A    between atoms: _482  and  _484
REMARK  205  A    between atoms: _484  and  _485
REMARK  206  A    between atoms: _484  and  _487
REMARK  207  A    between atoms: _487  and  _488
REMARK  208  A    between atoms: _491  and  _493
REMARK  209  A    between atoms: _493  and  _494
REMARK  210  A    between atoms: _493  and  _496
REMARK  211  A    between atoms: _496  and  _497
REMARK  212  A    between atoms: _497  and  _498
REMARK  213  A    between atoms: _498  and  _499
REMARK  214  A    between atoms: _499  and  _500
REMARK  215  A    between atoms: _504  and  _506
REMARK  216  A    between atoms: _506  and  _507
REMARK  217  A    between atoms: _509  and  _511
REMARK  218  A    between atoms: _511  and  _512
REMARK  219  A    between atoms: _511  and  _514
REMARK  220  A    between atoms: _514  and  _515
REMARK  221  A    between atoms: _520  and  _521
REMARK  222  A    between atoms: _523  and  _525
REMARK  223  A    between atoms: _525  and  _526
REMARK  224  A    between atoms: _528  and  _530
REMARK  225  A    between atoms: _530  and  _531
REMARK  226  A    between atoms: _530  and  _533
REMARK  227  A    between atoms: _533  and  _534
REMARK  228  A    between atoms: _534  and  _535
REMARK  229  A    between atoms: _535  and  _536
REMARK  230  A    between atoms: _536  and  _537
REMARK  231  A    between atoms: _541  and  _543
REMARK  232  A    between atoms: _543  and  _544
REMARK  233  A    between atoms: _543  and  _546
REMARK  234  A    between atoms: _546  and  _547
REMARK                            x       y       z     vdW  Elec       q    Type
REMARK                         _______ _______ _______ _____ _____    ______ ____
ROOT
ATOM      1  CA  SER A   4      13.258  35.179  24.416  0.00  0.00    +0.178 C 
ENDROOT
BRANCH   1   2
ATOM      2  C   SER A   4      13.616  33.796  24.944  0.00  0.00    +0.246 C 
ATOM      3  O   SER A   4      12.728  33.029  25.308  0.00  0.00    -0.273 OA
ATOM      4  N   PRO A   5      14.915  33.473  25.031  0.00  0.00    -0.272 N 
ATOM      5  CD  PRO A   5      15.392  32.274  25.748  0.00  0.00    +0.094 C 
ATOM      6  CG  PRO A   5      16.919  32.478  25.780  0.00  0.00    +0.024 C 
ATOM      7  CB  PRO A   5      17.075  33.964  25.725  0.00  0.00    +0.031 C 
ATOM      8  CA  PRO A   5      16.046  34.328  24.669  0.00  0.00    +0.152 C 
BRANCH   8   9
ATOM      9  C   PRO A   5      16.565  34.068  23.258  0.00  0.00    +0.241 C 
ATOM     10  O   PRO A   5      17.715  34.381  22.954  0.00  0.00    -0.273 OA
ATOM     11  N   TYR A   6      15.728  33.490  22.402  0.00  0.00    -0.297 N 
ATOM     12  H   TYR A   6      14.770  33.235  22.715  0.00  0.00    +0.150 HD
BRANCH  11  13
ATOM     13  CA  TYR A   6      16.136  33.209  21.030  0.00  0.00    +0.153 C 
BRANCH  13  14
ATOM     14  C   TYR A   6      16.179  34.485  20.215  0.00  0.00    +0.241 C 
ATOM     15  N   VAL A   7      15.077  35.225  20.212  0.00  0.00    -0.298 N 
ATOM     16  H   VAL A   7      14.243  34.901  20.743  0.00  0.00    +0.150 HD
ATOM     17  O   TYR A   6      17.195  34.793  19.598  0.00  0.00    -0.273 OA
BRANCH  15  18
ATOM     18  CA  VAL A   7      15.014  36.482  19.479  0.00  0.00    +0.137 C 
BRANCH  18  19
ATOM     19  CB  VAL A   7      14.334  36.322  18.093  0.00  0.00    +0.026 C 
ATOM     20  CG2 VAL A   7      14.276  37.680  17.398  0.00  0.00    +0.002 C 
ATOM     21  CG1 VAL A   7      15.101  35.323  17.224  0.00  0.00    +0.002 C 
ENDBRANCH  18  19
BRANCH  18  22
ATOM     22  C   VAL A   7      14.221  37.510  20.275  0.00  0.00    +0.227 C 
ATOM     23  O   VAL A   7      13.060  37.285  20.615  0.00  0.00    -0.286 OA
ENDBRANCH  18  22
ENDBRANCH  15  18
ENDBRANCH  13  14
BRANCH  13  24
ATOM     24  CB  TYR A   6      15.194  32.192  20.377  0.00  0.00    +0.055 C 
BRANCH  24  25
ATOM     25  CG  TYR A   6      15.377  30.801  20.928  0.00  0.00    -0.020 A 
ATOM     26  CD2 TYR A   6      14.457  30.268  21.821  0.00  0.00    -0.001 A 
ATOM     27  CE2 TYR A   6      14.651  29.033  22.389  0.00  0.00    +0.036 A 
ATOM     28  CZ  TYR A   6      15.770  28.292  22.076  0.00  0.00    +0.134 A 
ATOM     29  CE1 TYR A   6      16.710  28.782  21.177  0.00  0.00    +0.036 A 
ATOM     30  CD1 TYR A   6      16.509  30.039  20.608  0.00  0.00    -0.001 A 
BRANCH  28  31
ATOM     31  OH  TYR A   6      15.948  27.086  22.708  0.00  0.00    -0.506 OA
ATOM     32  HH  TYR A   6      16.786  26.668  22.388  0.00  0.00    +0.292 HD
ENDBRANCH  28  31
ENDBRANCH  24  25
ENDBRANCH  13  24
ENDBRANCH  11  13
ENDBRANCH   8   9
ENDBRANCH   1   2
BRANCH   1  34
ATOM     33  C   GLU A   3      12.042  34.400  22.453  0.00  0.00    +0.241 C 
ATOM     34  N   SER A   4      12.039  35.037  23.621  0.00  0.00    -0.295 N 
ATOM     35  H   SER A   4      11.150  35.443  23.976  0.00  0.00    +0.150 HD
ATOM     36  O   GLU A   3      13.056  33.906  21.961  0.00  0.00    -0.273 OA
BRANCH  33  37
ATOM     37  CA  GLU A   3      10.710  34.296  21.716  0.00  0.00    +0.149 C 
BRANCH  37  40
ATOM     38  C   LEU A   2       9.796  35.810  20.014  0.00  0.00    +0.241 C 
ATOM     39  O   LEU A   2       8.708  35.919  20.580  0.00  0.00    -0.273 OA
ATOM     40  N   GLU A   3      10.796  35.070  20.482  0.00  0.00    -0.297 N 
ATOM     41  H   GLU A   3      11.684  35.041  19.942  0.00  0.00    +0.150 HD
BRANCH  38  42
ATOM     42  CA  LEU A   2      10.079  36.531  18.703  0.00  0.00    +0.149 C 
BRANCH  42  45
ATOM     43  C   ILE A   1      10.561  34.719  17.145  0.00  0.00    +0.238 C 
ATOM     44  O   ILE A   1      11.643  34.476  17.686  0.00  0.00    -0.274 OA
ATOM     45  N   LEU A   2       9.739  35.684  17.560  0.00  0.00    -0.297 N 
ATOM     46  H   LEU A   2       8.839  35.837  17.061  0.00  0.00    +0.150 HD
BRANCH  43  47
ATOM     47  CA  ILE A   1      10.102  33.919  15.934  0.00  0.00    +0.145 C 
BRANCH  47  48
ATOM     48  N   ILE A   1      11.208  33.507  15.079  0.00  0.00    -0.238 NA
ATOM     49  H   ILE A   1      11.978  32.932  15.478  0.00  0.00    +0.142 HD
ENDBRANCH  47  48
BRANCH  47  50
ATOM     50  CB  ILE A   1       9.293  32.679  16.383  0.00  0.00    +0.025 C 
ATOM     51  CG2 ILE A   1      10.189  31.725  17.153  0.00  0.00    +0.002 C 
BRANCH  50  52
ATOM     52  CG1 ILE A   1       8.075  33.111  17.203  0.00  0.00    +0.002 C 
ATOM     53  CD1 ILE A   1       7.142  31.974  17.552  0.00  0.00    +0.000 C 
ENDBRANCH  50  52
ENDBRANCH  47  50
ENDBRANCH  43  47
ENDBRANCH  42  45
BRANCH  42  54
ATOM     54  CB  LEU A   2       9.298  37.848  18.647  0.00  0.00    +0.029 C 
BRANCH  54  55
ATOM     55  CG  LEU A   2       9.840  39.002  19.498  0.00  0.00    +0.002 C 
ATOM     56  CD2 LEU A   2       9.047  40.273  19.218  0.00  0.00    +0.000 C 
ATOM     57  CD1 LEU A   2      11.313  39.219  19.184  0.00  0.00    +0.000 C 
ENDBRANCH  54  55
ENDBRANCH  42  54
ENDBRANCH  38  42
ENDBRANCH  37  40
BRANCH  37  58
ATOM     58  CB  GLU A   3      10.440  32.820  21.391  0.00  0.00    +0.041 C 
BRANCH  58  59
ATOM     59  CG  GLU A   3       9.070  32.541  20.797  0.00  0.00    +0.116 C 
BRANCH  59  60
ATOM     60  CD  GLU A   3       8.062  32.138  21.852  0.00  0.00    +0.365 C 
ATOM     61  OE2 GLU A   3       7.978  32.825  22.892  0.00  0.00    -0.246 OA
ATOM     62  OE1 GLU A   3       7.353  31.136  21.643  0.00  0.00    -0.246 OA
ENDBRANCH  59  60
ENDBRANCH  58  59
ENDBRANCH  37  58
ENDBRANCH  33  37
ENDBRANCH   1  34
BRANCH   1  63
ATOM     63  CB  SER A   4      13.018  36.117  25.603  0.00  0.00    +0.166 C 
BRANCH  63  64
ATOM     64  OG  SER A   4      12.461  37.346  25.179  0.00  0.00    -0.380 OA
ATOM     65  H   SER A   4      12.317  37.930  25.965  0.00  0.00    +0.211 HD
ENDBRANCH  63  64
ENDBRANCH   1  63
TORSDOF 26
REMARK  Name = ../refined-set-2016/2p2a/2p2a_pocket.pdb
REMARK  234 active torsions:
REMARK  status: ('A' for Active; 'I' for Inactive)
REMARK    1  A    between atoms: _1  and  _3
REMARK    2  A    between atoms: _3  and  _4
REMARK    3  A    between atoms: _3  and  _6
REMARK    4  A    between atoms: _6  and  _7
REMARK    5  A    between atoms: _10  and  _12
REMARK    6  A    between atoms: _12  and  _13
REMARK    7  A    between atoms: _12  and  _15
REMARK    8  A    between atoms: _15  and  _16
REMARK    9  A    between atoms: _19  and  _21
REMARK   10  A    between atoms: _21  and  _22
REMARK   11  A    between atoms: _21  and  _24
REMARK   12  A    between atoms: _24  and  _25
REMARK   13  A    between atoms: _25  and  _26
REMARK   14  A    between atoms: _29  and  _31
REMARK   15  A    between atoms: _31  and  _32
REMARK   16  A    between atoms: _31  and  _34
REMARK   17  A    between atoms: _34  and  _35
REMARK   18  A    between atoms: _38  and  _39
REMARK   19  A    between atoms: _44  and  _46
REMARK   20  A    between atoms: _46  and  _47
REMARK   21  A    between atoms: _46  and  _49
REMARK   22  A    between atoms: _49  and  _50
REMARK   23  A    between atoms: _55  and  _56
REMARK   24  A    between atoms: _58  and  _60
REMARK   25  A    between atoms: _60  and  _61
REMARK   26  A    between atoms: _60  and  _63
REMARK   27  A    between atoms: _66  and  _68
REMARK   28  A    between atoms: _68  and  _69
REMARK   29  A    between atoms: _68  and  _71
REMARK   30  A    between atoms: _71  and  _72
REMARK   31  A    between atoms: _72  and  _73
REMARK   32  A    between atoms: _73  and  _74
REMARK   33  A    between atoms: _74  and  _75
REMARK   34  A    between atoms: _79  and  _81
REMARK   35  A    between atoms: _81  and  _82
REMARK   36  A    between atoms: _81  and  _84
REMARK   37  A    between atoms: _84  and  _85
REMARK   38  A    between atoms: _90  and  _91
REMARK   39  A    between atoms: _93  and  _95
REMARK   40  A    between atoms: _95  and  _96
REMARK   41  A    between atoms: _98  and  _100
REMARK   42  A    between atoms: _100  and  _101
REMARK   43  A    between atoms: _104  and  _106
REMARK   44  A    between atoms: _106  and  _107
REMARK   45  A    between atoms: _106  and  _109
REMARK   46  A    between atoms: _109  and  _110
REMARK   47  A    between atoms: _110  and  _111
REMARK   48  A    between atoms: _113  and  _115
REMARK   49  A    between atoms: _115  and  _116
REMARK   50  A    between atoms: _115  and  _118
REMARK   51  A    between atoms: _121  and  _123
REMARK   52  A    between atoms: _123  and  _124
REMARK   53  A    between atoms: _128  and  _129
REMARK   54  A    between atoms: _134  and  _136
REMARK   55  A    between atoms: _136  and  _137
REMARK   56  A    between atoms: _136  and  _139
REMARK   57  A    between atoms: _139  and  _140
REMARK   58  A    between atoms: _143  and  _145
REMARK   59  A    between atoms: _145  and  _146
REMARK   60  A    between atoms: _145  and  _148
REMARK   61  A    between atoms: _148  and  _149
REMARK   62  A    between atoms: _152  and  _154
REMARK   63  A    between atoms: _154  and  _155
REMARK   64  A    between atoms: _154  and  _157
REMARK   65  A    between atoms: _157  and  _158
REMARK   66  A    between atoms: _161  and  _163
REMARK   67  A    between atoms: _163  and  _164
REMARK   68  A    between atoms: _163  and  _166
REMARK   69  A    between atoms: _166  and  _167
REMARK   70  A    between atoms: _170  and  _172
REMARK   71  A    between atoms: _172  and  _173
REMARK   72  A    between atoms: _172  and  _175
REMARK   73  A    between atoms: _175  and  _176
REMARK   74  A    between atoms: _176  and  _177
REMARK   75  A    between atoms: _177  and  _178
REMARK   76  A    between atoms: _187  and  _189
REMARK   77  A    between atoms: _189  and  _190
REMARK   78  A    between atoms: _189  and  _192
REMARK   79  A    between atoms: _192  and  _193
REMARK   80  A    between atoms: _199  and  _201
REMARK   81  A    between atoms: _201  and  _202
REMARK   82  A    between atoms: _201  and  _204
REMARK   83  A    between atoms: _204  and  _205
REMARK   84  A    between atoms: _205  and  _206
REMARK   85  A    between atoms: _208  and  _210
REMARK   86  A    between atoms: _210  and  _211
REMARK   87  A    between atoms: _210  and  _213
REMARK   88  A    between atoms: _213  and  _214
REMARK   89  A    between atoms: _217  and  _219
REMARK   90  A    between atoms: _219  and  _220
REMARK   91  A    between atoms: _222  and  _224
REMARK   92  A    between atoms: _224  and  _225
REMARK   93  A    between atoms: _224  and  _227
REMARK   94  A    between atoms: _227  and  _228
REMARK   95  A    between atoms: _231  and  _233
REMARK   96  A    between atoms: _233  and  _234
REMARK   97  A    between atoms: _233  and  _236
REMARK   98  A    between atoms: _236  and  _237
REMARK   99  A    between atoms: _239  and  _241
REMARK  100  A    between atoms: _241  and  _242
REMARK  101  A    between atoms: _244  and  _246
REMARK  102  A    between atoms: _246  and  _247
REMARK  103  A    between atoms: _246  and  _249
REMARK  104  A    between atoms: _249  and  _250
REMARK  105  A    between atoms: _253  and  _255
REMARK  106  A    between atoms: _255  and  _256
REMARK  107  A    between atoms: _255  and  _258
REMARK  108  A    between atoms: _258  and  _259
REMARK  109  A    between atoms: _262  and  _264
REMARK  110  A    between atoms: _264  and  _265
REMARK  111  A    between atoms: _264  and  _267
REMARK  112  A    between atoms: _267  and  _268
REMARK  113  A    between atoms: _271  and  _273
REMARK  114  A    between atoms: _273  and  _274
REMARK  115  A    between atoms: _273  and  _276
REMARK  116  A    between atoms: _276  and  _277
REMARK  117  A    between atoms: _279  and  _281
REMARK  118  A    between atoms: _281  and  _282
REMARK  119  A    between atoms: _284  and  _286
REMARK  120  A    between atoms: _286  and  _287
REMARK  121  A    between atoms: _286  and  _289
REMARK  122  A    between atoms: _289  and  _290
REMARK  123  A    between atoms: _292  and  _294
REMARK  124  A    between atoms: _294  and  _295
REMARK  125  A    between atoms: _294  and  _297
REMARK  126  A    between atoms: _297  and  _298
REMARK  127  A    between atoms: _301  and  _303
REMARK  128  A    between atoms: _303  and  _304
REMARK  129  A    between atoms: _303  and  _306
REMARK  130  A    between atoms: _306  and  _307
REMARK  131  A    between atoms: _307  and  _308
REMARK  132  A    between atoms: _308  and  _309
REMARK  133  A    between atoms: _309  and  _310
REMARK  134  A    between atoms: _314  and  _316
REMARK  135  A    between atoms: _316  and  _317
REMARK  136  A    between atoms: _316  and  _319
REMARK  137  A    between atoms: _319  and  _320
REMARK  138  A    between atoms: _320  and  _321
REMARK  139  A    between atoms: _324  and  _326
REMARK  140  A    between atoms: _326  and  _327
REMARK  141  A    between atoms: _326  and  _329
REMARK  142  A    between atoms: _329  and  _330
REMARK  143  A    between atoms: _336  and  _338
REMARK  144  A    between atoms: _338  and  _339
REMARK  145  A    between atoms: _338  and  _341
REMARK  146  A    between atoms: _341  and  _342
REMARK  147  A    between atoms: _348  and  _350
REMARK  148  A    between atoms: _350  and  _351
REMARK  149  A    between atoms: _350  and  _353
REMARK  150  A    between atoms: _356  and  _358
REMARK  151  A    between atoms: _358  and  _359
REMARK  152  A    between atoms: _358  and  _361
REMARK  153  A    between atoms: _361  and  _362
REMARK  154  A    between atoms: _365  and  _367
REMARK  155  A    between atoms: _367  and  _368
REMARK  156  A    between atoms: _371  and  _373
REMARK  157  A    between atoms: _373  and  _374
REMARK  158  A    between atoms: _373  and  _376
REMARK  159  A    between atoms: _379  and  _381
REMARK  160  A    between atoms: _381  and  _382
REMARK  161  A    between atoms: _381  and  _384
REMARK  162  A    between atoms: _384  and  _385
REMARK  163  A    between atoms: _390  and  _391
REMARK  164  A    between atoms: _393  and  _395
REMARK  165  A    between atoms: _395  and  _396
REMARK  166  A    between atoms: _395  and  _398
REMARK  167  A    between atoms: _398  and  _399
REMARK  168  A    between atoms: _402  and  _404
REMARK  169  A    between atoms: _404  and  _405
REMARK  170  A    between atoms: _404  and  _407
REMARK  171  A    between atoms: _407  and  _408
REMARK  172  A    between atoms: _411  and  _413
REMARK  173  A    between atoms: _413  and  _414
REMARK  174  A    between atoms: _413  and  _416
REMARK  175  A    between atoms: _416  and  _417
REMARK  176  A    between atoms: _417  and  _418
REMARK  177  A    between atoms: _421  and  _423
REMARK  178  A    between atoms: _423  and  _424
REMARK  179  A    between atoms: _423  and  _426
REMARK  180  A    between atoms: _426  and  _427
REMARK  181  A    between atoms: _429  and  _431
REMARK  182  A    between atoms: _431  and  _432
REMARK  183  A    between atoms: _431  and  _434
REMARK  184  A    between atoms: _434  and  _435
REMARK  185  A    between atoms: _438  and  _440
REMARK  186  A    between atoms: _440  and  _441
REMARK  187  A    between atoms: _440  and  _443
REMARK  188  A    between atoms: _443  and  _444
REMARK  189  A    between atoms: _444  and  _445
REMARK  190  A    between atoms: _447  and  _449
REMARK  191  A    between atoms: _449  and  _450
REMARK  192  A    between atoms: _449  and  _452
REMARK  193  A    between atoms: _452  and  _453
REMARK  194  A    between atoms: _458  and  _460
REMARK  195  A    between atoms: _460  and  _461
REMARK  196  A    between atoms: _460  and  _463
REMARK  197  A    between atoms: _463  and  _464
REMARK  198  A    between atoms: _464  and  _465
REMARK  199  A    between atoms: _468  and  _470
REMARK  200  A    between atoms: _470  and  _471
REMARK  201  A    between atoms: _470  and  _473
REMARK  202  A    between atoms: _473  and  _474
REMARK  203  A    between atoms: _479  and  _480
REMARK  204  A    between atoms: _482  and  _484
REMARK  205  A    between atoms: _484  and  _485
REMARK  206  A    between atoms: _484  and  _487
REMARK  207  A    between atoms: _487  and  _488
REMARK  208  A    between atoms: _491  and  _493
REMARK  209  A    between atoms: _493  and  _494
REMARK  210  A    between atoms: _493  and  _496
REMARK  211  A    between atoms: _496  and  _497
REMARK  212  A    between atoms: _497  and  _498
REMARK  213  A    between atoms: _498  and  _499
REMARK  214  A    between atoms: _499  and  _500
REMARK  215  A    between atoms: _504  and  _506
REMARK  216  A    between atoms: _506  and  _507
REMARK  217  A    between atoms: _509  and  _511
REMARK  218  A    between atoms: _511  and  _512
REMARK  219  A    between atoms: _511  and  _514
REMARK  220  A    between atoms: _514  and  _515
REMARK  221  A    between atoms: _520  and  _521
REMARK  222  A    between atoms: _523  and  _525
REMARK  223  A    between atoms: _525  and  _526
REMARK  224  A    between atoms: _528  and  _530
REMARK  225  A    between atoms: _530  and  _531
REMARK  226  A    between atoms: _530  and  _533
REMARK  227  A    between atoms: _533  and  _534
REMARK  228  A    between atoms: _534  and  _535
REMARK  229  A    between atoms: _535  and  _536
REMARK  230  A    between atoms: _536  and  _537
REMARK  231  A    between atoms: _541  and  _543
REMARK  232  A    between atoms: _543  and  _544
REMARK  233  A    between atoms: _543  and  _546
REMARK  234  A    between atoms: _546  and  _547
REMARK                            x       y       z     vdW  Elec       q    Type
REMARK                         _______ _______ _______ _____ _____    ______ ____
ROOT
ATOM      1  CA  TYR A   2       5.741  27.838  14.704  0.00  0.00    +0.153 C 
ENDROOT
BRANCH   1   3
ATOM      2  C   LYS A   1       4.461  29.899  14.461  0.00  0.00    +0.238 C 
ATOM      3  N   TYR A   2       4.631  28.720  15.051  0.00  0.00    -0.297 N 
ATOM      4  H   TYR A   2       3.954  28.418  15.780  0.00  0.00    +0.150 HD
ATOM      5  O   LYS A   1       5.218  30.324  13.593  0.00  0.00    -0.274 OA
BRANCH   2   6
ATOM      6  CA  LYS A   1       3.250  30.712  14.917  0.00  0.00    +0.145 C 
BRANCH   6   7
ATOM      7  N   LYS A   1       3.398  32.144  14.664  0.00  0.00    -0.238 NA
ATOM      8  H   LYS A   1       3.322  32.491  13.687  0.00  0.00    +0.142 HD
ENDBRANCH   6   7
BRANCH   6   9
ATOM      9  CB  LYS A   1       2.000  30.190  14.208  0.00  0.00    +0.026 C 
BRANCH   9  10
ATOM     10  CG  LYS A   1       0.686  30.668  14.807  0.00  0.00    -0.000 C 
BRANCH  10  11
ATOM     11  CD  LYS A   1      -0.479  30.340  13.892  0.00  0.00    -0.024 C 
BRANCH  11  12
ATOM     12  CE  LYS A   1      -1.809  30.644  14.560  0.00  0.00    -0.086 C 
BRANCH  12  13
ATOM     13  NZ  LYS A   1      -2.017  29.732  15.741  0.00  0.00    +0.380 N 
ATOM     14  HZ1 LYS A   1      -1.249  29.876  16.428  0.00  0.00    -0.089 HD
ATOM     15  HZ2 LYS A   1      -2.930  29.950  16.189  0.00  0.00    -0.089 HD
ATOM     16  HZ3 LYS A   1      -2.015  28.743  15.419  0.00  0.00    -0.089 HD
ENDBRANCH  12  13
ENDBRANCH  11  12
ENDBRANCH  10  11
ENDBRANCH   9  10
ENDBRANCH   6   9
ENDBRANCH   2   6
ENDBRANCH   1   3
BRANCH   1  17
ATOM     17  C   TYR A   2       5.459  27.130  13.382  0.00  0.00    +0.241 C 
ATOM     18  N   GLY A   3       4.276  26.530  13.274  0.00  0.00    -0.295 N 
ATOM     19  H   GLY A   3       3.607  26.544  14.070  0.00  0.00    +0.150 HD
ATOM     20  O   TYR A   2       6.293  27.136  12.470  0.00  0.00    -0.273 OA
BRANCH  18  21
ATOM     21  CA  GLY A   3       3.926  25.857  12.038  0.00  0.00    +0.176 C 
BRANCH  21  22
ATOM     22  C   GLY A   3       3.066  24.622  12.175  0.00  0.00    +0.243 C 
ATOM     23  O   GLY A   3       3.437  23.669  12.851  0.00  0.00    -0.273 OA
ATOM     24  N   ALA A   4       1.914  24.643  11.512  0.00  0.00    -0.298 N 
ATOM     25  H   ALA A   4       1.672  25.490  10.960  0.00  0.00    +0.150 HD
BRANCH  24  26
ATOM     26  CA  ALA A   4       0.975  23.525  11.527  0.00  0.00    +0.137 C 
ATOM     27  CB  ALA A   4       0.081  23.607  12.760  0.00  0.00    +0.030 C 
BRANCH  26  28
ATOM     28  C   ALA A   4       0.123  23.571  10.262  0.00  0.00    +0.227 C 
ATOM     29  O   ALA A   4       0.018  24.605   9.619  0.00  0.00    -0.286 OA
ENDBRANCH  26  28
ENDBRANCH  24  26
ENDBRANCH  21  22
ENDBRANCH  18  21
ENDBRANCH   1  17
BRANCH   1  30
ATOM     30  CB  TYR A   2       5.959  26.826  15.826  0.00  0.00    +0.055 C 
BRANCH  30  31
ATOM     31  CG  TYR A   2       6.622  27.427  17.046  0.00  0.00    -0.020 A 
ATOM     32  CD2 TYR A   2       5.866  28.012  18.065  0.00  0.00    -0.001 A 
ATOM     33  CE2 TYR A   2       6.483  28.617  19.166  0.00  0.00    +0.036 A 
ATOM     34  CZ  TYR A   2       7.869  28.625  19.248  0.00  0.00    +0.134 A 
ATOM     35  CE1 TYR A   2       8.634  28.044  18.249  0.00  0.00    +0.036 A 
ATOM     36  CD1 TYR A   2       8.011  27.453  17.158  0.00  0.00    -0.001 A 
BRANCH  34  37
ATOM     37  OH  TYR A   2       8.507  29.205  20.319  0.00  0.00    -0.506 OA
ATOM     38  HH  TYR A   2       8.265  30.164  20.366  0.00  0.00    +0.292 HD
ENDBRANCH  34  37
ENDBRANCH  30  31
ENDBRANCH   1  30
TORSDOF 16
REMARK  Name = ../refined-set-2016/2p2a/2p2a_pocket.pdb
REMARK  234 active torsions:
REMARK  status: ('A' for Active; 'I' for Inactive)
REMARK    1  A    between atoms: _1  and  _3
REMARK    2  A    between atoms: _3  and  _4
REMARK    3  A    between atoms: _3  and  _6
REMARK    4  A    between atoms: _6  and  _7
REMARK    5  A    between atoms: _10  and  _12
REMARK    6  A    between atoms: _12  and  _13
REMARK    7  A    between atoms: _12  and  _15
REMARK    8  A    between atoms: _15  and  _16
REMARK    9  A    between atoms: _19  and  _21
REMARK   10  A    between atoms: _21  and  _22
REMARK   11  A    between atoms: _21  and  _24
REMARK   12  A    between atoms: _24  and  _25
REMARK   13  A    between atoms: _25  and  _26
REMARK   14  A    between atoms: _29  and  _31
REMARK   15  A    between atoms: _31  and  _32
REMARK   16  A    between atoms: _31  and  _34
REMARK   17  A    between atoms: _34  and  _35
REMARK   18  A    between atoms: _38  and  _39
REMARK   19  A    between atoms: _44  and  _46
REMARK   20  A    between atoms: _46  and  _47
REMARK   21  A    between atoms: _46  and  _49
REMARK   22  A    between atoms: _49  and  _50
REMARK   23  A    between atoms: _55  and  _56
REMARK   24  A    between atoms: _58  and  _60
REMARK   25  A    between atoms: _60  and  _61
REMARK   26  A    between atoms: _60  and  _63
REMARK   27  A    between atoms: _66  and  _68
REMARK   28  A    between atoms: _68  and  _69
REMARK   29  A    between atoms: _68  and  _71
REMARK   30  A    between atoms: _71  and  _72
REMARK   31  A    between atoms: _72  and  _73
REMARK   32  A    between atoms: _73  and  _74
REMARK   33  A    between atoms: _74  and  _75
REMARK   34  A    between atoms: _79  and  _81
REMARK   35  A    between atoms: _81  and  _82
REMARK   36  A    between atoms: _81  and  _84
REMARK   37  A    between atoms: _84  and  _85
REMARK   38  A    between atoms: _90  and  _91
REMARK   39  A    between atoms: _93  and  _95
REMARK   40  A    between atoms: _95  and  _96
REMARK   41  A    between atoms: _98  and  _100
REMARK   42  A    between atoms: _100  and  _101
REMARK   43  A    between atoms: _104  and  _106
REMARK   44  A    between atoms: _106  and  _107
REMARK   45  A    between atoms: _106  and  _109
REMARK   46  A    between atoms: _109  and  _110
REMARK   47  A    between atoms: _110  and  _111
REMARK   48  A    between atoms: _113  and  _115
REMARK   49  A    between atoms: _115  and  _116
REMARK   50  A    between atoms: _115  and  _118
REMARK   51  A    between atoms: _121  and  _123
REMARK   52  A    between atoms: _123  and  _124
REMARK   53  A    between atoms: _128  and  _129
REMARK   54  A    between atoms: _134  and  _136
REMARK   55  A    between atoms: _136  and  _137
REMARK   56  A    between atoms: _136  and  _139
REMARK   57  A    between atoms: _139  and  _140
REMARK   58  A    between atoms: _143  and  _145
REMARK   59  A    between atoms: _145  and  _146
REMARK   60  A    between atoms: _145  and  _148
REMARK   61  A    between atoms: _148  and  _149
REMARK   62  A    between atoms: _152  and  _154
REMARK   63  A    between atoms: _154  and  _155
REMARK   64  A    between atoms: _154  and  _157
REMARK   65  A    between atoms: _157  and  _158
REMARK   66  A    between atoms: _161  and  _163
REMARK   67  A    between atoms: _163  and  _164
REMARK   68  A    between atoms: _163  and  _166
REMARK   69  A    between atoms: _166  and  _167
REMARK   70  A    between atoms: _170  and  _172
REMARK   71  A    between atoms: _172  and  _173
REMARK   72  A    between atoms: _172  and  _175
REMARK   73  A    between atoms: _175  and  _176
REMARK   74  A    between atoms: _176  and  _177
REMARK   75  A    between atoms: _177  and  _178
REMARK   76  A    between atoms: _187  and  _189
REMARK   77  A    between atoms: _189  and  _190
REMARK   78  A    between atoms: _189  and  _192
REMARK   79  A    between atoms: _192  and  _193
REMARK   80  A    between atoms: _199  and  _201
REMARK   81  A    between atoms: _201  and  _202
REMARK   82  A    between atoms: _201  and  _204
REMARK   83  A    between atoms: _204  and  _205
REMARK   84  A    between atoms: _205  and  _206
REMARK   85  A    between atoms: _208  and  _210
REMARK   86  A    between atoms: _210  and  _211
REMARK   87  A    between atoms: _210  and  _213
REMARK   88  A    between atoms: _213  and  _214
REMARK   89  A    between atoms: _217  and  _219
REMARK   90  A    between atoms: _219  and  _220
REMARK   91  A    between atoms: _222  and  _224
REMARK   92  A    between atoms: _224  and  _225
REMARK   93  A    between atoms: _224  and  _227
REMARK   94  A    between atoms: _227  and  _228
REMARK   95  A    between atoms: _231  and  _233
REMARK   96  A    between atoms: _233  and  _234
REMARK   97  A    between atoms: _233  and  _236
REMARK   98  A    between atoms: _236  and  _237
REMARK   99  A    between atoms: _239  and  _241
REMARK  100  A    between atoms: _241  and  _242
REMARK  101  A    between atoms: _244  and  _246
REMARK  102  A    between atoms: _246  and  _247
REMARK  103  A    between atoms: _246  and  _249
REMARK  104  A    between atoms: _249  and  _250
REMARK  105  A    between atoms: _253  and  _255
REMARK  106  A    between atoms: _255  and  _256
REMARK  107  A    between atoms: _255  and  _258
REMARK  108  A    between atoms: _258  and  _259
REMARK  109  A    between atoms: _262  and  _264
REMARK  110  A    between atoms: _264  and  _265
REMARK  111  A    between atoms: _264  and  _267
REMARK  112  A    between atoms: _267  and  _268
REMARK  113  A    between atoms: _271  and  _273
REMARK  114  A    between atoms: _273  and  _274
REMARK  115  A    between atoms: _273  and  _276
REMARK  116  A    between atoms: _276  and  _277
REMARK  117  A    between atoms: _279  and  _281
REMARK  118  A    between atoms: _281  and  _282
REMARK  119  A    between atoms: _284  and  _286
REMARK  120  A    between atoms: _286  and  _287
REMARK  121  A    between atoms: _286  and  _289
REMARK  122  A    between atoms: _289  and  _290
REMARK  123  A    between atoms: _292  and  _294
REMARK  124  A    between atoms: _294  and  _295
REMARK  125  A    between atoms: _294  and  _297
REMARK  126  A    between atoms: _297  and  _298
REMARK  127  A    between atoms: _301  and  _303
REMARK  128  A    between atoms: _303  and  _304
REMARK  129  A    between atoms: _303  and  _306
REMARK  130  A    between atoms: _306  and  _307
REMARK  131  A    between atoms: _307  and  _308
REMARK  132  A    between atoms: _308  and  _309
REMARK  133  A    between atoms: _309  and  _310
REMARK  134  A    between atoms: _314  and  _316
REMARK  135  A    between atoms: _316  and  _317
REMARK  136  A    between atoms: _316  and  _319
REMARK  137  A    between atoms: _319  and  _320
REMARK  138  A    between atoms: _320  and  _321
REMARK  139  A    between atoms: _324  and  _326
REMARK  140  A    between atoms: _326  and  _327
REMARK  141  A    between atoms: _326  and  _329
REMARK  142  A    between atoms: _329  and  _330
REMARK  143  A    between atoms: _336  and  _338
REMARK  144  A    between atoms: _338  and  _339
REMARK  145  A    between atoms: _338  and  _341
REMARK  146  A    between atoms: _341  and  _342
REMARK  147  A    between atoms: _348  and  _350
REMARK  148  A    between atoms: _350  and  _351
REMARK  149  A    between atoms: _350  and  _353
REMARK  150  A    between atoms: _356  and  _358
REMARK  151  A    between atoms: _358  and  _359
REMARK  152  A    between atoms: _358  and  _361
REMARK  153  A    between atoms: _361  and  _362
REMARK  154  A    between atoms: _365  and  _367
REMARK  155  A    between atoms: _367  and  _368
REMARK  156  A    between atoms: _371  and  _373
REMARK  157  A    between atoms: _373  and  _374
REMARK  158  A    between atoms: _373  and  _376
REMARK  159  A    between atoms: _379  and  _381
REMARK  160  A    between atoms: _381  and  _382
REMARK  161  A    between atoms: _381  and  _384
REMARK  162  A    between atoms: _384  and  _385
REMARK  163  A    between atoms: _390  and  _391
REMARK  164  A    between atoms: _393  and  _395
REMARK  165  A    between atoms: _395  and  _396
REMARK  166  A    between atoms: _395  and  _398
REMARK  167  A    between atoms: _398  and  _399
REMARK  168  A    between atoms: _402  and  _404
REMARK  169  A    between atoms: _404  and  _405
REMARK  170  A    between atoms: _404  and  _407
REMARK  171  A    between atoms: _407  and  _408
REMARK  172  A    between atoms: _411  and  _413
REMARK  173  A    between atoms: _413  and  _414
REMARK  174  A    between atoms: _413  and  _416
REMARK  175  A    between atoms: _416  and  _417
REMARK  176  A    between atoms: _417  and  _418
REMARK  177  A    between atoms: _421  and  _423
REMARK  178  A    between atoms: _423  and  _424
REMARK  179  A    between atoms: _423  and  _426
REMARK  180  A    between atoms: _426  and  _427
REMARK  181  A    between atoms: _429  and  _431
REMARK  182  A    between atoms: _431  and  _432
REMARK  183  A    between atoms: _431  and  _434
REMARK  184  A    between atoms: _434  and  _435
REMARK  185  A    between atoms: _438  and  _440
REMARK  186  A    between atoms: _440  and  _441
REMARK  187  A    between atoms: _440  and  _443
REMARK  188  A    between atoms: _443  and  _444
REMARK  189  A    between atoms: _444  and  _445
REMARK  190  A    between atoms: _447  and  _449
REMARK  191  A    between atoms: _449  and  _450
REMARK  192  A    between atoms: _449  and  _452
REMARK  193  A    between atoms: _452  and  _453
REMARK  194  A    between atoms: _458  and  _460
REMARK  195  A    between atoms: _460  and  _461
REMARK  196  A    between atoms: _460  and  _463
REMARK  197  A    between atoms: _463  and  _464
REMARK  198  A    between atoms: _464  and  _465
REMARK  199  A    between atoms: _468  and  _470
REMARK  200  A    between atoms: _470  and  _471
REMARK  201  A    between atoms: _470  and  _473
REMARK  202  A    between atoms: _473  and  _474
REMARK  203  A    between atoms: _479  and  _480
REMARK  204  A    between atoms: _482  and  _484
REMARK  205  A    between atoms: _484  and  _485
REMARK  206  A    between atoms: _484  and  _487
REMARK  207  A    between atoms: _487  and  _488
REMARK  208  A    between atoms: _491  and  _493
REMARK  209  A    between atoms: _493  and  _494
REMARK  210  A    between atoms: _493  and  _496
REMARK  211  A    between atoms: _496  and  _497
REMARK  212  A    between atoms: _497  and  _498
REMARK  213  A    between atoms: _498  and  _499
REMARK  214  A    between atoms: _499  and  _500
REMARK  215  A    between atoms: _504  and  _506
REMARK  216  A    between atoms: _506  and  _507
REMARK  217  A    between atoms: _509  and  _511
REMARK  218  A    between atoms: _511  and  _512
REMARK  219  A    between atoms: _511  and  _514
REMARK  220  A    between atoms: _514  and  _515
REMARK  221  A    between atoms: _520  and  _521
REMARK  222  A    between atoms: _523  and  _525
REMARK  223  A    between atoms: _525  and  _526
REMARK  224  A    between atoms: _528  and  _530
REMARK  225  A    between atoms: _530  and  _531
REMARK  226  A    between atoms: _530  and  _533
REMARK  227  A    between atoms: _533  and  _534
REMARK  228  A    between atoms: _534  and  _535
REMARK  229  A    between atoms: _535  and  _536
REMARK  230  A    between atoms: _536  and  _537
REMARK  231  A    between atoms: _541  and  _543
REMARK  232  A    between atoms: _543  and  _544
REMARK  233  A    between atoms: _543  and  _546
REMARK  234  A    between atoms: _546  and  _547
REMARK                            x       y       z     vdW  Elec       q    Type
REMARK                         _______ _______ _______ _____ _____    ______ ____
ROOT
ATOM      1  C   MET A   1       7.391  28.466   8.911  0.00  0.00    +0.238 C 
ATOM      2  N   VAL A   2       6.777  27.335   9.251  0.00  0.00    -0.298 N 
ATOM      3  H   VAL A   2       6.339  27.249  10.190  0.00  0.00    +0.150 HD
ATOM      4  O   MET A   1       7.943  28.623   7.820  0.00  0.00    -0.274 OA
ENDROOT
BRANCH   1   5
ATOM      5  CA  MET A   1       7.383  29.594   9.941  0.00  0.00    +0.146 C 
BRANCH   5   6
ATOM      6  N   MET A   1       6.103  29.703  10.625  0.00  0.00    -0.238 NA
ATOM      7  H   MET A   1       6.083  29.731  11.664  0.00  0.00    +0.142 HD
ENDBRANCH   5   6
BRANCH   5   8
ATOM      8  CB  MET A   1       8.509  29.394  10.958  0.00  0.00    +0.038 C 
BRANCH   8   9
ATOM      9  CG  MET A   1       8.681  30.570  11.918  0.00  0.00    +0.060 C 
BRANCH   9  10
ATOM     10  SD  MET A   1      10.078  30.380  13.050  0.00  0.00    -0.139 S 
ATOM     11  CE  MET A   1       9.355  29.324  14.314  0.00  0.00    +0.069 C 
ENDBRANCH   9  10
ENDBRANCH   8   9
ENDBRANCH   5   8
ENDBRANCH   1   5
BRANCH   2  12
ATOM     12  CA  VAL A   2       6.713  26.215   8.318  0.00  0.00    +0.137 C 
BRANCH  12  13
ATOM     13  CB  VAL A   2       5.867  25.049   8.870  0.00  0.00    +0.026 C 
ATOM     14  CG2 VAL A   2       6.516  24.477  10.118  0.00  0.00    +0.002 C 
ATOM     15  CG1 VAL A   2       5.739  23.955   7.805  0.00  0.00    +0.002 C 
ENDBRANCH  12  13
BRANCH  12  16
ATOM     16  C   VAL A   2       6.073  26.707   7.025  0.00  0.00    +0.227 C 
ATOM     17  O   VAL A   2       6.570  26.433   5.931  0.00  0.00    -0.286 OA
ENDBRANCH  12  16
ENDBRANCH   2  12
TORSDOF 8
REMARK  Name = ../refined-set-2016/2p2a/2p2a_pocket.pdb
REMARK  234 active torsions:
REMARK  status: ('A' for Active; 'I' for Inactive)
REMARK    1  A    between atoms: _1  and  _3
REMARK    2  A    between atoms: _3  and  _4
REMARK    3  A    between atoms: _3  and  _6
REMARK    4  A    between atoms: _6  and  _7
REMARK    5  A    between atoms: _10  and  _12
REMARK    6  A    between atoms: _12  and  _13
REMARK    7  A    between atoms: _12  and  _15
REMARK    8  A    between atoms: _15  and  _16
REMARK    9  A    between atoms: _19  and  _21
REMARK   10  A    between atoms: _21  and  _22
REMARK   11  A    between atoms: _21  and  _24
REMARK   12  A    between atoms: _24  and  _25
REMARK   13  A    between atoms: _25  and  _26
REMARK   14  A    between atoms: _29  and  _31
REMARK   15  A    between atoms: _31  and  _32
REMARK   16  A    between atoms: _31  and  _34
REMARK   17  A    between atoms: _34  and  _35
REMARK   18  A    between atoms: _38  and  _39
REMARK   19  A    between atoms: _44  and  _46
REMARK   20  A    between atoms: _46  and  _47
REMARK   21  A    between atoms: _46  and  _49
REMARK   22  A    between atoms: _49  and  _50
REMARK   23  A    between atoms: _55  and  _56
REMARK   24  A    between atoms: _58  and  _60
REMARK   25  A    between atoms: _60  and  _61
REMARK   26  A    between atoms: _60  and  _63
REMARK   27  A    between atoms: _66  and  _68
REMARK   28  A    between atoms: _68  and  _69
REMARK   29  A    between atoms: _68  and  _71
REMARK   30  A    between atoms: _71  and  _72
REMARK   31  A    between atoms: _72  and  _73
REMARK   32  A    between atoms: _73  and  _74
REMARK   33  A    between atoms: _74  and  _75
REMARK   34  A    between atoms: _79  and  _81
REMARK   35  A    between atoms: _81  and  _82
REMARK   36  A    between atoms: _81  and  _84
REMARK   37  A    between atoms: _84  and  _85
REMARK   38  A    between atoms: _90  and  _91
REMARK   39  A    between atoms: _93  and  _95
REMARK   40  A    between atoms: _95  and  _96
REMARK   41  A    between atoms: _98  and  _100
REMARK   42  A    between atoms: _100  and  _101
REMARK   43  A    between atoms: _104  and  _106
REMARK   44  A    between atoms: _106  and  _107
REMARK   45  A    between atoms: _106  and  _109
REMARK   46  A    between atoms: _109  and  _110
REMARK   47  A    between atoms: _110  and  _111
REMARK   48  A    between atoms: _113  and  _115
REMARK   49  A    between atoms: _115  and  _116
REMARK   50  A    between atoms: _115  and  _118
REMARK   51  A    between atoms: _121  and  _123
REMARK   52  A    between atoms: _123  and  _124
REMARK   53  A    between atoms: _128  and  _129
REMARK   54  A    between atoms: _134  and  _136
REMARK   55  A    between atoms: _136  and  _137
REMARK   56  A    between atoms: _136  and  _139
REMARK   57  A    between atoms: _139  and  _140
REMARK   58  A    between atoms: _143  and  _145
REMARK   59  A    between atoms: _145  and  _146
REMARK   60  A    between atoms: _145  and  _148
REMARK   61  A    between atoms: _148  and  _149
REMARK   62  A    between atoms: _152  and  _154
REMARK   63  A    between atoms: _154  and  _155
REMARK   64  A    between atoms: _154  and  _157
REMARK   65  A    between atoms: _157  and  _158
REMARK   66  A    between atoms: _161  and  _163
REMARK   67  A    between atoms: _163  and  _164
REMARK   68  A    between atoms: _163  and  _166
REMARK   69  A    between atoms: _166  and  _167
REMARK   70  A    between atoms: _170  and  _172
REMARK   71  A    between atoms: _172  and  _173
REMARK   72  A    between atoms: _172  and  _175
REMARK   73  A    between atoms: _175  and  _176
REMARK   74  A    between atoms: _176  and  _177
REMARK   75  A    between atoms: _177  and  _178
REMARK   76  A    between atoms: _187  and  _189
REMARK   77  A    between atoms: _189  and  _190
REMARK   78  A    between atoms: _189  and  _192
REMARK   79  A    between atoms: _192  and  _193
REMARK   80  A    between atoms: _199  and  _201
REMARK   81  A    between atoms: _201  and  _202
REMARK   82  A    between atoms: _201  and  _204
REMARK   83  A    between atoms: _204  and  _205
REMARK   84  A    between atoms: _205  and  _206
REMARK   85  A    between atoms: _208  and  _210
REMARK   86  A    between atoms: _210  and  _211
REMARK   87  A    between atoms: _210  and  _213
REMARK   88  A    between atoms: _213  and  _214
REMARK   89  A    between atoms: _217  and  _219
REMARK   90  A    between atoms: _219  and  _220
REMARK   91  A    between atoms: _222  and  _224
REMARK   92  A    between atoms: _224  and  _225
REMARK   93  A    between atoms: _224  and  _227
REMARK   94  A    between atoms: _227  and  _228
REMARK   95  A    between atoms: _231  and  _233
REMARK   96  A    between atoms: _233  and  _234
REMARK   97  A    between atoms: _233  and  _236
REMARK   98  A    between atoms: _236  and  _237
REMARK   99  A    between atoms: _239  and  _241
REMARK  100  A    between atoms: _241  and  _242
REMARK  101  A    between atoms: _244  and  _246
REMARK  102  A    between atoms: _246  and  _247
REMARK  103  A    between atoms: _246  and  _249
REMARK  104  A    between atoms: _249  and  _250
REMARK  105  A    between atoms: _253  and  _255
REMARK  106  A    between atoms: _255  and  _256
REMARK  107  A    between atoms: _255  and  _258
REMARK  108  A    between atoms: _258  and  _259
REMARK  109  A    between atoms: _262  and  _264
REMARK  110  A    between atoms: _264  and  _265
REMARK  111  A    between atoms: _264  and  _267
REMARK  112  A    between atoms: _267  and  _268
REMARK  113  A    between atoms: _271  and  _273
REMARK  114  A    between atoms: _273  and  _274
REMARK  115  A    between atoms: _273  and  _276
REMARK  116  A    between atoms: _276  and  _277
REMARK  117  A    between atoms: _279  and  _281
REMARK  118  A    between atoms: _281  and  _282
REMARK  119  A    between atoms: _284  and  _286
REMARK  120  A    between atoms: _286  and  _287
REMARK  121  A    between atoms: _286  and  _289
REMARK  122  A    between atoms: _289  and  _290
REMARK  123  A    between atoms: _292  and  _294
REMARK  124  A    between atoms: _294  and  _295
REMARK  125  A    between atoms: _294  and  _297
REMARK  126  A    between atoms: _297  and  _298
REMARK  127  A    between atoms: _301  and  _303
REMARK  128  A    between atoms: _303  and  _304
REMARK  129  A    between atoms: _303  and  _306
REMARK  130  A    between atoms: _306  and  _307
REMARK  131  A    between atoms: _307  and  _308
REMARK  132  A    between atoms: _308  and  _309
REMARK  133  A    between atoms: _309  and  _310
REMARK  134  A    between atoms: _314  and  _316
REMARK  135  A    between atoms: _316  and  _317
REMARK  136  A    between atoms: _316  and  _319
REMARK  137  A    between atoms: _319  and  _320
REMARK  138  A    between atoms: _320  and  _321
REMARK  139  A    between atoms: _324  and  _326
REMARK  140  A    between atoms: _326  and  _327
REMARK  141  A    between atoms: _326  and  _329
REMARK  142  A    between atoms: _329  and  _330
REMARK  143  A    between atoms: _336  and  _338
REMARK  144  A    between atoms: _338  and  _339
REMARK  145  A    between atoms: _338  and  _341
REMARK  146  A    between atoms: _341  and  _342
REMARK  147  A    between atoms: _348  and  _350
REMARK  148  A    between atoms: _350  and  _351
REMARK  149  A    between atoms: _350  and  _353
REMARK  150  A    between atoms: _356  and  _358
REMARK  151  A    between atoms: _358  and  _359
REMARK  152  A    between atoms: _358  and  _361
REMARK  153  A    between atoms: _361  and  _362
REMARK  154  A    between atoms: _365  and  _367
REMARK  155  A    between atoms: _367  and  _368
REMARK  156  A    between atoms: _371  and  _373
REMARK  157  A    between atoms: _373  and  _374
REMARK  158  A    between atoms: _373  and  _376
REMARK  159  A    between atoms: _379  and  _381
REMARK  160  A    between atoms: _381  and  _382
REMARK  161  A    between atoms: _381  and  _384
REMARK  162  A    between atoms: _384  and  _385
REMARK  163  A    between atoms: _390  and  _391
REMARK  164  A    between atoms: _393  and  _395
REMARK  165  A    between atoms: _395  and  _396
REMARK  166  A    between atoms: _395  and  _398
REMARK  167  A    between atoms: _398  and  _399
REMARK  168  A    between atoms: _402  and  _404
REMARK  169  A    between atoms: _404  and  _405
REMARK  170  A    between atoms: _404  and  _407
REMARK  171  A    between atoms: _407  and  _408
REMARK  172  A    between atoms: _411  and  _413
REMARK  173  A    between atoms: _413  and  _414
REMARK  174  A    between atoms: _413  and  _416
REMARK  175  A    between atoms: _416  and  _417
REMARK  176  A    between atoms: _417  and  _418
REMARK  177  A    between atoms: _421  and  _423
REMARK  178  A    between atoms: _423  and  _424
REMARK  179  A    between atoms: _423  and  _426
REMARK  180  A    between atoms: _426  and  _427
REMARK  181  A    between atoms: _429  and  _431
REMARK  182  A    between atoms: _431  and  _432
REMARK  183  A    between atoms: _431  and  _434
REMARK  184  A    between atoms: _434  and  _435
REMARK  185  A    between atoms: _438  and  _440
REMARK  186  A    between atoms: _440  and  _441
REMARK  187  A    between atoms: _440  and  _443
REMARK  188  A    between atoms: _443  and  _444
REMARK  189  A    between atoms: _444  and  _445
REMARK  190  A    between atoms: _447  and  _449
REMARK  191  A    between atoms: _449  and  _450
REMARK  192  A    between atoms: _449  and  _452
REMARK  193  A    between atoms: _452  and  _453
REMARK  194  A    between atoms: _458  and  _460
REMARK  195  A    between atoms: _460  and  _461
REMARK  196  A    between atoms: _460  and  _463
REMARK  197  A    between atoms: _463  and  _464
REMARK  198  A    between atoms: _464  and  _465
REMARK  199  A    between atoms: _468  and  _470
REMARK  200  A    between atoms: _470  and  _471
REMARK  201  A    between atoms: _470  and  _473
REMARK  202  A    between atoms: _473  and  _474
REMARK  203  A    between atoms: _479  and  _480
REMARK  204  A    between atoms: _482  and  _484
REMARK  205  A    between atoms: _484  and  _485
REMARK  206  A    between atoms: _484  and  _487
REMARK  207  A    between atoms: _487  and  _488
REMARK  208  A    between atoms: _491  and  _493
REMARK  209  A    between atoms: _493  and  _494
REMARK  210  A    between atoms: _493  and  _496
REMARK  211  A    between atoms: _496  and  _497
REMARK  212  A    between atoms: _497  and  _498
REMARK  213  A    between atoms: _498  and  _499
REMARK  214  A    between atoms: _499  and  _500
REMARK  215  A    between atoms: _504  and  _506
REMARK  216  A    between atoms: _506  and  _507
REMARK  217  A    between atoms: _509  and  _511
REMARK  218  A    between atoms: _511  and  _512
REMARK  219  A    between atoms: _511  and  _514
REMARK  220  A    between atoms: _514  and  _515
REMARK  221  A    between atoms: _520  and  _521
REMARK  222  A    between atoms: _523  and  _525
REMARK  223  A    between atoms: _525  and  _526
REMARK  224  A    between atoms: _528  and  _530
REMARK  225  A    between atoms: _530  and  _531
REMARK  226  A    between atoms: _530  and  _533
REMARK  227  A    between atoms: _533  and  _534
REMARK  228  A    between atoms: _534  and  _535
REMARK  229  A    between atoms: _535  and  _536
REMARK  230  A    between atoms: _536  and  _537
REMARK  231  A    between atoms: _541  and  _543
REMARK  232  A    between atoms: _543  and  _544
REMARK  233  A    between atoms: _543  and  _546
REMARK  234  A    between atoms: _546  and  _547
REMARK                            x       y       z     vdW  Elec       q    Type
REMARK                         _______ _______ _______ _____ _____    ______ ____
ROOT
ATOM      1  CA  THR A   4      10.853  21.169  16.470  0.00  0.00    +0.176 C 
ENDROOT
BRANCH   1   3
ATOM      2  C   LEU A   3      11.771  23.280  15.635  0.00  0.00    +0.241 C 
ATOM      3  N   THR A   4      10.772  22.602  16.192  0.00  0.00    -0.295 N 
ATOM      4  H   THR A   4       9.899  23.111  16.439  0.00  0.00    +0.150 HD
ATOM      5  O   LEU A   3      12.828  22.747  15.280  0.00  0.00    -0.273 OA
BRANCH   2   6
ATOM      6  CA  LEU A   3      11.534  24.790  15.449  0.00  0.00    +0.149 C 
BRANCH   6   9
ATOM      7  C   PRO A   2      12.311  26.014  17.431  0.00  0.00    +0.241 C 
ATOM      8  O   PRO A   2      11.270  25.801  18.050  0.00  0.00    -0.273 OA
ATOM      9  N   LEU A   3      12.525  25.570  16.193  0.00  0.00    -0.297 N 
ATOM     10  H   LEU A   3      13.434  25.787  15.736  0.00  0.00    +0.150 HD
BRANCH   7  16
ATOM     11  C   ALA A   1      14.303  28.079  16.182  0.00  0.00    +0.241 C 
ATOM     12  N   PRO A   2      13.656  28.091  17.354  0.00  0.00    -0.272 N 
ATOM     13  CD  PRO A   2      13.283  29.244  18.199  0.00  0.00    +0.094 C 
ATOM     14  CG  PRO A   2      12.441  28.598  19.281  0.00  0.00    +0.024 C 
ATOM     15  CB  PRO A   2      13.147  27.274  19.493  0.00  0.00    +0.031 C 
ATOM     16  CA  PRO A   2      13.452  26.823  18.062  0.00  0.00    +0.152 C 
ATOM     17  O   ALA A   1      14.742  27.044  15.699  0.00  0.00    -0.273 OA
BRANCH  11  18
ATOM     18  CA  ALA A   1      14.488  29.412  15.470  0.00  0.00    +0.145 C 
ATOM     19  CB  ALA A   1      13.126  30.013  15.145  0.00  0.00    +0.028 C 
BRANCH  18  20
ATOM     20  N   ALA A   1      15.215  29.196  14.237  0.00  0.00    -0.238 NA
ATOM     21  H   ALA A   1      15.372  28.222  13.908  0.00  0.00    +0.142 HD
ENDBRANCH  18  20
ENDBRANCH  11  18
ENDBRANCH   7  16
ENDBRANCH   6   9
BRANCH   6  22
ATOM     22  CB  LEU A   3      11.597  25.157  13.962  0.00  0.00    +0.029 C 
BRANCH  22  23
ATOM     23  CG  LEU A   3      10.494  24.611  13.047  0.00  0.00    +0.002 C 
ATOM     24  CD2 LEU A   3       9.134  25.167  13.474  0.00  0.00    +0.000 C 
ATOM     25  CD1 LEU A   3      10.789  24.999  11.619  0.00  0.00    +0.000 C 
ENDBRANCH  22  23
ENDBRANCH   6  22
ENDBRANCH   2   6
ENDBRANCH   1   3
BRANCH   1  26
ATOM     26  C   THR A   4      10.795  20.239  15.245  0.00  0.00    +0.243 C 
ATOM     27  N   ILE A   5      11.801  19.376  15.136  0.00  0.00    -0.297 N 
ATOM     28  H   ILE A   5      12.548  19.391  15.860  0.00  0.00    +0.150 HD
ATOM     29  O   THR A   4       9.872  20.302  14.427  0.00  0.00    -0.273 OA
BRANCH  27  30
ATOM     30  CA  ILE A   5      11.905  18.409  14.047  0.00  0.00    +0.149 C 
BRANCH  30  31
ATOM     31  C   ILE A   5      10.826  17.338  14.220  0.00  0.00    +0.241 C 
ATOM     32  O   ILE A   5      10.847  16.604  15.198  0.00  0.00    -0.273 OA
ATOM     33  N   THR A   6       9.879  17.263  13.283  0.00  0.00    -0.296 N 
ATOM     34  H   THR A   6       9.901  17.923  12.480  0.00  0.00    +0.150 HD
BRANCH  33  35
ATOM     35  CA  THR A   6       8.808  16.266  13.366  0.00  0.00    +0.164 C 
BRANCH  35  36
ATOM     36  C   THR A   6       8.535  15.579  12.026  0.00  0.00    +0.229 C 
ATOM     37  O   THR A   6       8.982  16.037  10.973  0.00  0.00    -0.286 OA
ENDBRANCH  35  36
BRANCH  35  38
ATOM     38  CB  THR A   6       7.472  16.888  13.877  0.00  0.00    +0.136 C 
ATOM     39  CG2 THR A   6       7.670  17.545  15.246  0.00  0.00    +0.034 C 
BRANCH  38  40
ATOM     40  OG1 THR A   6       7.003  17.867  12.938  0.00  0.00    -0.382 OA
ATOM     41  HG1 THR A   6       6.155  18.258  13.267  0.00  0.00    +0.210 HD
ENDBRANCH  38  40
ENDBRANCH  35  38
ENDBRANCH  33  35
ENDBRANCH  30  31
BRANCH  30  42
ATOM     42  CB  ILE A   5      13.305  17.733  14.065  0.00  0.00    +0.027 C 
ATOM     43  CG2 ILE A   5      13.375  16.628  13.011  0.00  0.00    +0.002 C 
BRANCH  42  44
ATOM     44  CG1 ILE A   5      14.387  18.798  13.846  0.00  0.00    +0.002 C 
ATOM     45  CD1 ILE A   5      15.799  18.351  14.176  0.00  0.00    +0.000 C 
ENDBRANCH  42  44
ENDBRANCH  30  42
ENDBRANCH  27  30
ENDBRANCH   1  26
BRANCH   1  46
ATOM     46  CB  THR A   4       9.749  20.780  17.470  0.00  0.00    +0.137 C 
ATOM     47  CG2 THR A   4       9.780  19.297  17.779  0.00  0.00    +0.034 C 
BRANCH  46  48
ATOM     48  OG1 THR A   4       9.948  21.514  18.686  0.00  0.00    -0.382 OA
ATOM     49  HG1 THR A   4       9.242  21.271  19.336  0.00  0.00    +0.210 HD
ENDBRANCH  46  48
ENDBRANCH   1  46
TORSDOF 19
REMARK  Name = ../refined-set-2016/2p2a/2p2a_pocket.pdb
REMARK  234 active torsions:
REMARK  status: ('A' for Active; 'I' for Inactive)
REMARK    1  A    between atoms: _1  and  _3
REMARK    2  A    between atoms: _3  and  _4
REMARK    3  A    between atoms: _3  and  _6
REMARK    4  A    between atoms: _6  and  _7
REMARK    5  A    between atoms: _10  and  _12
REMARK    6  A    between atoms: _12  and  _13
REMARK    7  A    between atoms: _12  and  _15
REMARK    8  A    between atoms: _15  and  _16
REMARK    9  A    between atoms: _19  and  _21
REMARK   10  A    between atoms: _21  and  _22
REMARK   11  A    between atoms: _21  and  _24
REMARK   12  A    between atoms: _24  and  _25
REMARK   13  A    between atoms: _25  and  _26
REMARK   14  A    between atoms: _29  and  _31
REMARK   15  A    between atoms: _31  and  _32
REMARK   16  A    between atoms: _31  and  _34
REMARK   17  A    between atoms: _34  and  _35
REMARK   18  A    between atoms: _38  and  _39
REMARK   19  A    between atoms: _44  and  _46
REMARK   20  A    between atoms: _46  and  _47
REMARK   21  A    between atoms: _46  and  _49
REMARK   22  A    between atoms: _49  and  _50
REMARK   23  A    between atoms: _55  and  _56
REMARK   24  A    between atoms: _58  and  _60
REMARK   25  A    between atoms: _60  and  _61
REMARK   26  A    between atoms: _60  and  _63
REMARK   27  A    between atoms: _66  and  _68
REMARK   28  A    between atoms: _68  and  _69
REMARK   29  A    between atoms: _68  and  _71
REMARK   30  A    between atoms: _71  and  _72
REMARK   31  A    between atoms: _72  and  _73
REMARK   32  A    between atoms: _73  and  _74
REMARK   33  A    between atoms: _74  and  _75
REMARK   34  A    between atoms: _79  and  _81
REMARK   35  A    between atoms: _81  and  _82
REMARK   36  A    between atoms: _81  and  _84
REMARK   37  A    between atoms: _84  and  _85
REMARK   38  A    between atoms: _90  and  _91
REMARK   39  A    between atoms: _93  and  _95
REMARK   40  A    between atoms: _95  and  _96
REMARK   41  A    between atoms: _98  and  _100
REMARK   42  A    between atoms: _100  and  _101
REMARK   43  A    between atoms: _104  and  _106
REMARK   44  A    between atoms: _106  and  _107
REMARK   45  A    between atoms: _106  and  _109
REMARK   46  A    between atoms: _109  and  _110
REMARK   47  A    between atoms: _110  and  _111
REMARK   48  A    between atoms: _113  and  _115
REMARK   49  A    between atoms: _115  and  _116
REMARK   50  A    between atoms: _115  and  _118
REMARK   51  A    between atoms: _121  and  _123
REMARK   52  A    between atoms: _123  and  _124
REMARK   53  A    between atoms: _128  and  _129
REMARK   54  A    between atoms: _134  and  _136
REMARK   55  A    between atoms: _136  and  _137
REMARK   56  A    between atoms: _136  and  _139
REMARK   57  A    between atoms: _139  and  _140
REMARK   58  A    between atoms: _143  and  _145
REMARK   59  A    between atoms: _145  and  _146
REMARK   60  A    between atoms: _145  and  _148
REMARK   61  A    between atoms: _148  and  _149
REMARK   62  A    between atoms: _152  and  _154
REMARK   63  A    between atoms: _154  and  _155
REMARK   64  A    between atoms: _154  and  _157
REMARK   65  A    between atoms: _157  and  _158
REMARK   66  A    between atoms: _161  and  _163
REMARK   67  A    between atoms: _163  and  _164
REMARK   68  A    between atoms: _163  and  _166
REMARK   69  A    between atoms: _166  and  _167
REMARK   70  A    between atoms: _170  and  _172
REMARK   71  A    between atoms: _172  and  _173
REMARK   72  A    between atoms: _172  and  _175
REMARK   73  A    between atoms: _175  and  _176
REMARK   74  A    between atoms: _176  and  _177
REMARK   75  A    between atoms: _177  and  _178
REMARK   76  A    between atoms: _187  and  _189
REMARK   77  A    between atoms: _189  and  _190
REMARK   78  A    between atoms: _189  and  _192
REMARK   79  A    between atoms: _192  and  _193
REMARK   80  A    between atoms: _199  and  _201
REMARK   81  A    between atoms: _201  and  _202
REMARK   82  A    between atoms: _201  and  _204
REMARK   83  A    between atoms: _204  and  _205
REMARK   84  A    between atoms: _205  and  _206
REMARK   85  A    between atoms: _208  and  _210
REMARK   86  A    between atoms: _210  and  _211
REMARK   87  A    between atoms: _210  and  _213
REMARK   88  A    between atoms: _213  and  _214
REMARK   89  A    between atoms: _217  and  _219
REMARK   90  A    between atoms: _219  and  _220
REMARK   91  A    between atoms: _222  and  _224
REMARK   92  A    between atoms: _224  and  _225
REMARK   93  A    between atoms: _224  and  _227
REMARK   94  A    between atoms: _227  and  _228
REMARK   95  A    between atoms: _231  and  _233
REMARK   96  A    between atoms: _233  and  _234
REMARK   97  A    between atoms: _233  and  _236
REMARK   98  A    between atoms: _236  and  _237
REMARK   99  A    between atoms: _239  and  _241
REMARK  100  A    between atoms: _241  and  _242
REMARK  101  A    between atoms: _244  and  _246
REMARK  102  A    between atoms: _246  and  _247
REMARK  103  A    between atoms: _246  and  _249
REMARK  104  A    between atoms: _249  and  _250
REMARK  105  A    between atoms: _253  and  _255
REMARK  106  A    between atoms: _255  and  _256
REMARK  107  A    between atoms: _255  and  _258
REMARK  108  A    between atoms: _258  and  _259
REMARK  109  A    between atoms: _262  and  _264
REMARK  110  A    between atoms: _264  and  _265
REMARK  111  A    between atoms: _264  and  _267
REMARK  112  A    between atoms: _267  and  _268
REMARK  113  A    between atoms: _271  and  _273
REMARK  114  A    between atoms: _273  and  _274
REMARK  115  A    between atoms: _273  and  _276
REMARK  116  A    between atoms: _276  and  _277
REMARK  117  A    between atoms: _279  and  _281
REMARK  118  A    between atoms: _281  and  _282
REMARK  119  A    between atoms: _284  and  _286
REMARK  120  A    between atoms: _286  and  _287
REMARK  121  A    between atoms: _286  and  _289
REMARK  122  A    between atoms: _289  and  _290
REMARK  123  A    between atoms: _292  and  _294
REMARK  124  A    between atoms: _294  and  _295
REMARK  125  A    between atoms: _294  and  _297
REMARK  126  A    between atoms: _297  and  _298
REMARK  127  A    between atoms: _301  and  _303
REMARK  128  A    between atoms: _303  and  _304
REMARK  129  A    between atoms: _303  and  _306
REMARK  130  A    between atoms: _306  and  _307
REMARK  131  A    between atoms: _307  and  _308
REMARK  132  A    between atoms: _308  and  _309
REMARK  133  A    between atoms: _309  and  _310
REMARK  134  A    between atoms: _314  and  _316
REMARK  135  A    between atoms: _316  and  _317
REMARK  136  A    between atoms: _316  and  _319
REMARK  137  A    between atoms: _319  and  _320
REMARK  138  A    between atoms: _320  and  _321
REMARK  139  A    between atoms: _324  and  _326
REMARK  140  A    between atoms: _326  and  _327
REMARK  141  A    between atoms: _326  and  _329
REMARK  142  A    between atoms: _329  and  _330
REMARK  143  A    between atoms: _336  and  _338
REMARK  144  A    between atoms: _338  and  _339
REMARK  145  A    between atoms: _338  and  _341
REMARK  146  A    between atoms: _341  and  _342
REMARK  147  A    between atoms: _348  and  _350
REMARK  148  A    between atoms: _350  and  _351
REMARK  149  A    between atoms: _350  and  _353
REMARK  150  A    between atoms: _356  and  _358
REMARK  151  A    between atoms: _358  and  _359
REMARK  152  A    between atoms: _358  and  _361
REMARK  153  A    between atoms: _361  and  _362
REMARK  154  A    between atoms: _365  and  _367
REMARK  155  A    between atoms: _367  and  _368
REMARK  156  A    between atoms: _371  and  _373
REMARK  157  A    between atoms: _373  and  _374
REMARK  158  A    between atoms: _373  and  _376
REMARK  159  A    between atoms: _379  and  _381
REMARK  160  A    between atoms: _381  and  _382
REMARK  161  A    between atoms: _381  and  _384
REMARK  162  A    between atoms: _384  and  _385
REMARK  163  A    between atoms: _390  and  _391
REMARK  164  A    between atoms: _393  and  _395
REMARK  165  A    between atoms: _395  and  _396
REMARK  166  A    between atoms: _395  and  _398
REMARK  167  A    between atoms: _398  and  _399
REMARK  168  A    between atoms: _402  and  _404
REMARK  169  A    between atoms: _404  and  _405
REMARK  170  A    between atoms: _404  and  _407
REMARK  171  A    between atoms: _407  and  _408
REMARK  172  A    between atoms: _411  and  _413
REMARK  173  A    between atoms: _413  and  _414
REMARK  174  A    between atoms: _413  and  _416
REMARK  175  A    between atoms: _416  and  _417
REMARK  176  A    between atoms: _417  and  _418
REMARK  177  A    between atoms: _421  and  _423
REMARK  178  A    between atoms: _423  and  _424
REMARK  179  A    between atoms: _423  and  _426
REMARK  180  A    between atoms: _426  and  _427
REMARK  181  A    between atoms: _429  and  _431
REMARK  182  A    between atoms: _431  and  _432
REMARK  183  A    between atoms: _431  and  _434
REMARK  184  A    between atoms: _434  and  _435
REMARK  185  A    between atoms: _438  and  _440
REMARK  186  A    between atoms: _440  and  _441
REMARK  187  A    between atoms: _440  and  _443
REMARK  188  A    between atoms: _443  and  _444
REMARK  189  A    between atoms: _444  and  _445
REMARK  190  A    between atoms: _447  and  _449
REMARK  191  A    between atoms: _449  and  _450
REMARK  192  A    between atoms: _449  and  _452
REMARK  193  A    between atoms: _452  and  _453
REMARK  194  A    between atoms: _458  and  _460
REMARK  195  A    between atoms: _460  and  _461
REMARK  196  A    between atoms: _460  and  _463
REMARK  197  A    between atoms: _463  and  _464
REMARK  198  A    between atoms: _464  and  _465
REMARK  199  A    between atoms: _468  and  _470
REMARK  200  A    between atoms: _470  and  _471
REMARK  201  A    between atoms: _470  and  _473
REMARK  202  A    between atoms: _473  and  _474
REMARK  203  A    between atoms: _479  and  _480
REMARK  204  A    between atoms: _482  and  _484
REMARK  205  A    between atoms: _484  and  _485
REMARK  206  A    between atoms: _484  and  _487
REMARK  207  A    between atoms: _487  and  _488
REMARK  208  A    between atoms: _491  and  _493
REMARK  209  A    between atoms: _493  and  _494
REMARK  210  A    between atoms: _493  and  _496
REMARK  211  A    between atoms: _496  and  _497
REMARK  212  A    between atoms: _497  and  _498
REMARK  213  A    between atoms: _498  and  _499
REMARK  214  A    between atoms: _499  and  _500
REMARK  215  A    between atoms: _504  and  _506
REMARK  216  A    between atoms: _506  and  _507
REMARK  217  A    between atoms: _509  and  _511
REMARK  218  A    between atoms: _511  and  _512
REMARK  219  A    between atoms: _511  and  _514
REMARK  220  A    between atoms: _514  and  _515
REMARK  221  A    between atoms: _520  and  _521
REMARK  222  A    between atoms: _523  and  _525
REMARK  223  A    between atoms: _525  and  _526
REMARK  224  A    between atoms: _528  and  _530
REMARK  225  A    between atoms: _530  and  _531
REMARK  226  A    between atoms: _530  and  _533
REMARK  227  A    between atoms: _533  and  _534
REMARK  228  A    between atoms: _534  and  _535
REMARK  229  A    between atoms: _535  and  _536
REMARK  230  A    between atoms: _536  and  _537
REMARK  231  A    between atoms: _541  and  _543
REMARK  232  A    between atoms: _543  and  _544
REMARK  233  A    between atoms: _543  and  _546
REMARK  234  A    between atoms: _546  and  _547
REMARK                            x       y       z     vdW  Elec       q    Type
REMARK                         _______ _______ _______ _____ _____    ______ ____
ROOT
ATOM      1  NE  ARG A   1       6.376  21.850  12.787  0.00  0.00    -0.265 N 
ATOM      2  CZ  ARG A   1       6.623  22.418  13.963  0.00  0.00    +0.342 C 
ATOM      3  NH2 ARG A   1       5.665  23.089  14.586  0.00  0.00    -0.292 N 
ATOM      4 HH21 ARG A   1       5.856  23.534  15.506  0.00  0.00    +0.255 HD
ATOM      5 HH22 ARG A   1       4.722  23.170  14.155  0.00  0.00    +0.255 HD
ATOM      6  NH1 ARG A   1       7.826  22.316  14.518  0.00  0.00    -0.292 N 
ATOM      7 HH11 ARG A   1       8.014  22.762  15.438  0.00  0.00    +0.255 HD
ATOM      8 HH12 ARG A   1       8.580  21.790  14.032  0.00  0.00    +0.255 HD
ATOM      9  HE  ARG A   1       5.421  21.953  12.388  0.00  0.00    +0.259 HD
ENDROOT
BRANCH   1  10
ATOM     10  CD  ARG A   1       7.356  21.092  12.021  0.00  0.00    +0.174 C 
BRANCH  10  11
ATOM     11  CG  ARG A   1       6.720  20.405  10.822  0.00  0.00    +0.045 C 
BRANCH  11  12
ATOM     12  CB  ARG A   1       7.731  19.549  10.055  0.00  0.00    +0.029 C 
BRANCH  12  13
ATOM     13  CA  ARG A   1       7.093  18.745   8.917  0.00  0.00    +0.133 C 
BRANCH  13  14
ATOM     14  N   ARG A   1       6.353  17.616   9.455  0.00  0.00    -0.239 NA
ATOM     15  H   ARG A   1       6.606  17.229  10.386  0.00  0.00    +0.142 HD
ENDBRANCH  13  14
BRANCH  13  16
ATOM     16  C   ARG A   1       8.159  18.248   7.936  0.00  0.00    +0.224 C 
ATOM     17  O   ARG A   1       8.316  18.800   6.842  0.00  0.00    -0.287 OA
ENDBRANCH  13  16
ENDBRANCH  12  13
ENDBRANCH  11  12
ENDBRANCH  10  11
ENDBRANCH   1  10
TORSDOF 6
REMARK  Name = ../refined-set-2016/2p2a/2p2a_pocket.pdb
REMARK  234 active torsions:
REMARK  status: ('A' for Active; 'I' for Inactive)
REMARK    1  A    between atoms: _1  and  _3
REMARK    2  A    between atoms: _3  and  _4
REMARK    3  A    between atoms: _3  and  _6
REMARK    4  A    between atoms: _6  and  _7
REMARK    5  A    between atoms: _10  and  _12
REMARK    6  A    between atoms: _12  and  _13
REMARK    7  A    between atoms: _12  and  _15
REMARK    8  A    between atoms: _15  and  _16
REMARK    9  A    between atoms: _19  and  _21
REMARK   10  A    between atoms: _21  and  _22
REMARK   11  A    between atoms: _21  and  _24
REMARK   12  A    between atoms: _24  and  _25
REMARK   13  A    between atoms: _25  and  _26
REMARK   14  A    between atoms: _29  and  _31
REMARK   15  A    between atoms: _31  and  _32
REMARK   16  A    between atoms: _31  and  _34
REMARK   17  A    between atoms: _34  and  _35
REMARK   18  A    between atoms: _38  and  _39
REMARK   19  A    between atoms: _44  and  _46
REMARK   20  A    between atoms: _46  and  _47
REMARK   21  A    between atoms: _46  and  _49
REMARK   22  A    between atoms: _49  and  _50
REMARK   23  A    between atoms: _55  and  _56
REMARK   24  A    between atoms: _58  and  _60
REMARK   25  A    between atoms: _60  and  _61
REMARK   26  A    between atoms: _60  and  _63
REMARK   27  A    between atoms: _66  and  _68
REMARK   28  A    between atoms: _68  and  _69
REMARK   29  A    between atoms: _68  and  _71
REMARK   30  A    between atoms: _71  and  _72
REMARK   31  A    between atoms: _72  and  _73
REMARK   32  A    between atoms: _73  and  _74
REMARK   33  A    between atoms: _74  and  _75
REMARK   34  A    between atoms: _79  and  _81
REMARK   35  A    between atoms: _81  and  _82
REMARK   36  A    between atoms: _81  and  _84
REMARK   37  A    between atoms: _84  and  _85
REMARK   38  A    between atoms: _90  and  _91
REMARK   39  A    between atoms: _93  and  _95
REMARK   40  A    between atoms: _95  and  _96
REMARK   41  A    between atoms: _98  and  _100
REMARK   42  A    between atoms: _100  and  _101
REMARK   43  A    between atoms: _104  and  _106
REMARK   44  A    between atoms: _106  and  _107
REMARK   45  A    between atoms: _106  and  _109
REMARK   46  A    between atoms: _109  and  _110
REMARK   47  A    between atoms: _110  and  _111
REMARK   48  A    between atoms: _113  and  _115
REMARK   49  A    between atoms: _115  and  _116
REMARK   50  A    between atoms: _115  and  _118
REMARK   51  A    between atoms: _121  and  _123
REMARK   52  A    between atoms: _123  and  _124
REMARK   53  A    between atoms: _128  and  _129
REMARK   54  A    between atoms: _134  and  _136
REMARK   55  A    between atoms: _136  and  _137
REMARK   56  A    between atoms: _136  and  _139
REMARK   57  A    between atoms: _139  and  _140
REMARK   58  A    between atoms: _143  and  _145
REMARK   59  A    between atoms: _145  and  _146
REMARK   60  A    between atoms: _145  and  _148
REMARK   61  A    between atoms: _148  and  _149
REMARK   62  A    between atoms: _152  and  _154
REMARK   63  A    between atoms: _154  and  _155
REMARK   64  A    between atoms: _154  and  _157
REMARK   65  A    between atoms: _157  and  _158
REMARK   66  A    between atoms: _161  and  _163
REMARK   67  A    between atoms: _163  and  _164
REMARK   68  A    between atoms: _163  and  _166
REMARK   69  A    between atoms: _166  and  _167
REMARK   70  A    between atoms: _170  and  _172
REMARK   71  A    between atoms: _172  and  _173
REMARK   72  A    between atoms: _172  and  _175
REMARK   73  A    between atoms: _175  and  _176
REMARK   74  A    between atoms: _176  and  _177
REMARK   75  A    between atoms: _177  and  _178
REMARK   76  A    between atoms: _187  and  _189
REMARK   77  A    between atoms: _189  and  _190
REMARK   78  A    between atoms: _189  and  _192
REMARK   79  A    between atoms: _192  and  _193
REMARK   80  A    between atoms: _199  and  _201
REMARK   81  A    between atoms: _201  and  _202
REMARK   82  A    between atoms: _201  and  _204
REMARK   83  A    between atoms: _204  and  _205
REMARK   84  A    between atoms: _205  and  _206
REMARK   85  A    between atoms: _208  and  _210
REMARK   86  A    between atoms: _210  and  _211
REMARK   87  A    between atoms: _210  and  _213
REMARK   88  A    between atoms: _213  and  _214
REMARK   89  A    between atoms: _217  and  _219
REMARK   90  A    between atoms: _219  and  _220
REMARK   91  A    between atoms: _222  and  _224
REMARK   92  A    between atoms: _224  and  _225
REMARK   93  A    between atoms: _224  and  _227
REMARK   94  A    between atoms: _227  and  _228
REMARK   95  A    between atoms: _231  and  _233
REMARK   96  A    between atoms: _233  and  _234
REMARK   97  A    between atoms: _233  and  _236
REMARK   98  A    between atoms: _236  and  _237
REMARK   99  A    between atoms: _239  and  _241
REMARK  100  A    between atoms: _241  and  _242
REMARK  101  A    between atoms: _244  and  _246
REMARK  102  A    between atoms: _246  and  _247
REMARK  103  A    between atoms: _246  and  _249
REMARK  104  A    between atoms: _249  and  _250
REMARK  105  A    between atoms: _253  and  _255
REMARK  106  A    between atoms: _255  and  _256
REMARK  107  A    between atoms: _255  and  _258
REMARK  108  A    between atoms: _258  and  _259
REMARK  109  A    between atoms: _262  and  _264
REMARK  110  A    between atoms: _264  and  _265
REMARK  111  A    between atoms: _264  and  _267
REMARK  112  A    between atoms: _267  and  _268
REMARK  113  A    between atoms: _271  and  _273
REMARK  114  A    between atoms: _273  and  _274
REMARK  115  A    between atoms: _273  and  _276
REMARK  116  A    between atoms: _276  and  _277
REMARK  117  A    between atoms: _279  and  _281
REMARK  118  A    between atoms: _281  and  _282
REMARK  119  A    between atoms: _284  and  _286
REMARK  120  A    between atoms: _286  and  _287
REMARK  121  A    between atoms: _286  and  _289
REMARK  122  A    between atoms: _289  and  _290
REMARK  123  A    between atoms: _292  and  _294
REMARK  124  A    between atoms: _294  and  _295
REMARK  125  A    between atoms: _294  and  _297
REMARK  126  A    between atoms: _297  and  _298
REMARK  127  A    between atoms: _301  and  _303
REMARK  128  A    between atoms: _303  and  _304
REMARK  129  A    between atoms: _303  and  _306
REMARK  130  A    between atoms: _306  and  _307
REMARK  131  A    between atoms: _307  and  _308
REMARK  132  A    between atoms: _308  and  _309
REMARK  133  A    between atoms: _309  and  _310
REMARK  134  A    between atoms: _314  and  _316
REMARK  135  A    between atoms: _316  and  _317
REMARK  136  A    between atoms: _316  and  _319
REMARK  137  A    between atoms: _319  and  _320
REMARK  138  A    between atoms: _320  and  _321
REMARK  139  A    between atoms: _324  and  _326
REMARK  140  A    between atoms: _326  and  _327
REMARK  141  A    between atoms: _326  and  _329
REMARK  142  A    between atoms: _329  and  _330
REMARK  143  A    between atoms: _336  and  _338
REMARK  144  A    between atoms: _338  and  _339
REMARK  145  A    between atoms: _338  and  _341
REMARK  146  A    between atoms: _341  and  _342
REMARK  147  A    between atoms: _348  and  _350
REMARK  148  A    between atoms: _350  and  _351
REMARK  149  A    between atoms: _350  and  _353
REMARK  150  A    between atoms: _356  and  _358
REMARK  151  A    between atoms: _358  and  _359
REMARK  152  A    between atoms: _358  and  _361
REMARK  153  A    between atoms: _361  and  _362
REMARK  154  A    between atoms: _365  and  _367
REMARK  155  A    between atoms: _367  and  _368
REMARK  156  A    between atoms: _371  and  _373
REMARK  157  A    between atoms: _373  and  _374
REMARK  158  A    between atoms: _373  and  _376
REMARK  159  A    between atoms: _379  and  _381
REMARK  160  A    between atoms: _381  and  _382
REMARK  161  A    between atoms: _381  and  _384
REMARK  162  A    between atoms: _384  and  _385
REMARK  163  A    between atoms: _390  and  _391
REMARK  164  A    between atoms: _393  and  _395
REMARK  165  A    between atoms: _395  and  _396
REMARK  166  A    between atoms: _395  and  _398
REMARK  167  A    between atoms: _398  and  _399
REMARK  168  A    between atoms: _402  and  _404
REMARK  169  A    between atoms: _404  and  _405
REMARK  170  A    between atoms: _404  and  _407
REMARK  171  A    between atoms: _407  and  _408
REMARK  172  A    between atoms: _411  and  _413
REMARK  173  A    between atoms: _413  and  _414
REMARK  174  A    between atoms: _413  and  _416
REMARK  175  A    between atoms: _416  and  _417
REMARK  176  A    between atoms: _417  and  _418
REMARK  177  A    between atoms: _421  and  _423
REMARK  178  A    between atoms: _423  and  _424
REMARK  179  A    between atoms: _423  and  _426
REMARK  180  A    between atoms: _426  and  _427
REMARK  181  A    between atoms: _429  and  _431
REMARK  182  A    between atoms: _431  and  _432
REMARK  183  A    between atoms: _431  and  _434
REMARK  184  A    between atoms: _434  and  _435
REMARK  185  A    between atoms: _438  and  _440
REMARK  186  A    between atoms: _440  and  _441
REMARK  187  A    between atoms: _440  and  _443
REMARK  188  A    between atoms: _443  and  _444
REMARK  189  A    between atoms: _444  and  _445
REMARK  190  A    between atoms: _447  and  _449
REMARK  191  A    between atoms: _449  and  _450
REMARK  192  A    between atoms: _449  and  _452
REMARK  193  A    between atoms: _452  and  _453
REMARK  194  A    between atoms: _458  and  _460
REMARK  195  A    between atoms: _460  and  _461
REMARK  196  A    between atoms: _460  and  _463
REMARK  197  A    between atoms: _463  and  _464
REMARK  198  A    between atoms: _464  and  _465
REMARK  199  A    between atoms: _468  and  _470
REMARK  200  A    between atoms: _470  and  _471
REMARK  201  A    between atoms: _470  and  _473
REMARK  202  A    between atoms: _473  and  _474
REMARK  203  A    between atoms: _479  and  _480
REMARK  204  A    between atoms: _482  and  _484
REMARK  205  A    between atoms: _484  and  _485
REMARK  206  A    between atoms: _484  and  _487
REMARK  207  A    between atoms: _487  and  _488
REMARK  208  A    between atoms: _491  and  _493
REMARK  209  A    between atoms: _493  and  _494
REMARK  210  A    between atoms: _493  and  _496
REMARK  211  A    between atoms: _496  and  _497
REMARK  212  A    between atoms: _497  and  _498
REMARK  213  A    between atoms: _498  and  _499
REMARK  214  A    between atoms: _499  and  _500
REMARK  215  A    between atoms: _504  and  _506
REMARK  216  A    between atoms: _506  and  _507
REMARK  217  A    between atoms: _509  and  _511
REMARK  218  A    between atoms: _511  and  _512
REMARK  219  A    between atoms: _511  and  _514
REMARK  220  A    between atoms: _514  and  _515
REMARK  221  A    between atoms: _520  and  _521
REMARK  222  A    between atoms: _523  and  _525
REMARK  223  A    between atoms: _525  and  _526
REMARK  224  A    between atoms: _528  and  _530
REMARK  225  A    between atoms: _530  and  _531
REMARK  226  A    between atoms: _530  and  _533
REMARK  227  A    between atoms: _533  and  _534
REMARK  228  A    between atoms: _534  and  _535
REMARK  229  A    between atoms: _535  and  _536
REMARK  230  A    between atoms: _536  and  _537
REMARK  231  A    between atoms: _541  and  _543
REMARK  232  A    between atoms: _543  and  _544
REMARK  233  A    between atoms: _543  and  _546
REMARK  234  A    between atoms: _546  and  _547
REMARK                            x       y       z     vdW  Elec       q    Type
REMARK                         _______ _______ _______ _____ _____    ______ ____
ROOT
ATOM      1  CB  PHE A   1      15.071  19.439   9.947  0.00  0.00    +0.051 C 
ENDROOT
BRANCH   1   2
ATOM      2  CG  PHE A   1      13.732  20.051  10.271  0.00  0.00    -0.020 A 
ATOM      3  CD2 PHE A   1      13.646  21.218  11.021  0.00  0.00    -0.004 A 
ATOM      4  CE2 PHE A   1      12.405  21.730  11.407  0.00  0.00    -0.000 A 
ATOM      5  CZ  PHE A   1      11.242  21.073  11.036  0.00  0.00    -0.000 A 
ATOM      6  CE1 PHE A   1      11.319  19.918  10.283  0.00  0.00    -0.000 A 
ATOM      7  CD1 PHE A   1      12.558  19.412   9.903  0.00  0.00    -0.004 A 
ENDBRANCH   1   2
BRANCH   1   8
ATOM      8  CA  PHE A   1      15.820  20.103   8.789  0.00  0.00    +0.137 C 
BRANCH   8   9
ATOM      9  N   PHE A   1      15.246  19.699   7.509  0.00  0.00    -0.239 NA
ATOM     10  H   PHE A   1      15.309  18.697   7.237  0.00  0.00    +0.142 HD
ENDBRANCH   8   9
BRANCH   8  11
ATOM     11  C   PHE A   1      17.282  19.637   8.868  0.00  0.00    +0.224 C 
ATOM     12  O   PHE A   1      17.629  18.562   8.375  0.00  0.00    -0.287 OA
ENDBRANCH   8  11
ENDBRANCH   1   8
TORSDOF 4
REMARK  Name = ../refined-set-2016/2p2a/2p2a_pocket.pdb
REMARK  234 active torsions:
REMARK  status: ('A' for Active; 'I' for Inactive)
REMARK    1  A    between atoms: _1  and  _3
REMARK    2  A    between atoms: _3  and  _4
REMARK    3  A    between atoms: _3  and  _6
REMARK    4  A    between atoms: _6  and  _7
REMARK    5  A    between atoms: _10  and  _12
REMARK    6  A    between atoms: _12  and  _13
REMARK    7  A    between atoms: _12  and  _15
REMARK    8  A    between atoms: _15  and  _16
REMARK    9  A    between atoms: _19  and  _21
REMARK   10  A    between atoms: _21  and  _22
REMARK   11  A    between atoms: _21  and  _24
REMARK   12  A    between atoms: _24  and  _25
REMARK   13  A    between atoms: _25  and  _26
REMARK   14  A    between atoms: _29  and  _31
REMARK   15  A    between atoms: _31  and  _32
REMARK   16  A    between atoms: _31  and  _34
REMARK   17  A    between atoms: _34  and  _35
REMARK   18  A    between atoms: _38  and  _39
REMARK   19  A    between atoms: _44  and  _46
REMARK   20  A    between atoms: _46  and  _47
REMARK   21  A    between atoms: _46  and  _49
REMARK   22  A    between atoms: _49  and  _50
REMARK   23  A    between atoms: _55  and  _56
REMARK   24  A    between atoms: _58  and  _60
REMARK   25  A    between atoms: _60  and  _61
REMARK   26  A    between atoms: _60  and  _63
REMARK   27  A    between atoms: _66  and  _68
REMARK   28  A    between atoms: _68  and  _69
REMARK   29  A    between atoms: _68  and  _71
REMARK   30  A    between atoms: _71  and  _72
REMARK   31  A    between atoms: _72  and  _73
REMARK   32  A    between atoms: _73  and  _74
REMARK   33  A    between atoms: _74  and  _75
REMARK   34  A    between atoms: _79  and  _81
REMARK   35  A    between atoms: _81  and  _82
REMARK   36  A    between atoms: _81  and  _84
REMARK   37  A    between atoms: _84  and  _85
REMARK   38  A    between atoms: _90  and  _91
REMARK   39  A    between atoms: _93  and  _95
REMARK   40  A    between atoms: _95  and  _96
REMARK   41  A    between atoms: _98  and  _100
REMARK   42  A    between atoms: _100  and  _101
REMARK   43  A    between atoms: _104  and  _106
REMARK   44  A    between atoms: _106  and  _107
REMARK   45  A    between atoms: _106  and  _109
REMARK   46  A    between atoms: _109  and  _110
REMARK   47  A    between atoms: _110  and  _111
REMARK   48  A    between atoms: _113  and  _115
REMARK   49  A    between atoms: _115  and  _116
REMARK   50  A    between atoms: _115  and  _118
REMARK   51  A    between atoms: _121  and  _123
REMARK   52  A    between atoms: _123  and  _124
REMARK   53  A    between atoms: _128  and  _129
REMARK   54  A    between atoms: _134  and  _136
REMARK   55  A    between atoms: _136  and  _137
REMARK   56  A    between atoms: _136  and  _139
REMARK   57  A    between atoms: _139  and  _140
REMARK   58  A    between atoms: _143  and  _145
REMARK   59  A    between atoms: _145  and  _146
REMARK   60  A    between atoms: _145  and  _148
REMARK   61  A    between atoms: _148  and  _149
REMARK   62  A    between atoms: _152  and  _154
REMARK   63  A    between atoms: _154  and  _155
REMARK   64  A    between atoms: _154  and  _157
REMARK   65  A    between atoms: _157  and  _158
REMARK   66  A    between atoms: _161  and  _163
REMARK   67  A    between atoms: _163  and  _164
REMARK   68  A    between atoms: _163  and  _166
REMARK   69  A    between atoms: _166  and  _167
REMARK   70  A    between atoms: _170  and  _172
REMARK   71  A    between atoms: _172  and  _173
REMARK   72  A    between atoms: _172  and  _175
REMARK   73  A    between atoms: _175  and  _176
REMARK   74  A    between atoms: _176  and  _177
REMARK   75  A    between atoms: _177  and  _178
REMARK   76  A    between atoms: _187  and  _189
REMARK   77  A    between atoms: _189  and  _190
REMARK   78  A    between atoms: _189  and  _192
REMARK   79  A    between atoms: _192  and  _193
REMARK   80  A    between atoms: _199  and  _201
REMARK   81  A    between atoms: _201  and  _202
REMARK   82  A    between atoms: _201  and  _204
REMARK   83  A    between atoms: _204  and  _205
REMARK   84  A    between atoms: _205  and  _206
REMARK   85  A    between atoms: _208  and  _210
REMARK   86  A    between atoms: _210  and  _211
REMARK   87  A    between atoms: _210  and  _213
REMARK   88  A    between atoms: _213  and  _214
REMARK   89  A    between atoms: _217  and  _219
REMARK   90  A    between atoms: _219  and  _220
REMARK   91  A    between atoms: _222  and  _224
REMARK   92  A    between atoms: _224  and  _225
REMARK   93  A    between atoms: _224  and  _227
REMARK   94  A    between atoms: _227  and  _228
REMARK   95  A    between atoms: _231  and  _233
REMARK   96  A    between atoms: _233  and  _234
REMARK   97  A    between atoms: _233  and  _236
REMARK   98  A    between atoms: _236  and  _237
REMARK   99  A    between atoms: _239  and  _241
REMARK  100  A    between atoms: _241  and  _242
REMARK  101  A    between atoms: _244  and  _246
REMARK  102  A    between atoms: _246  and  _247
REMARK  103  A    between atoms: _246  and  _249
REMARK  104  A    between atoms: _249  and  _250
REMARK  105  A    between atoms: _253  and  _255
REMARK  106  A    between atoms: _255  and  _256
REMARK  107  A    between atoms: _255  and  _258
REMARK  108  A    between atoms: _258  and  _259
REMARK  109  A    between atoms: _262  and  _264
REMARK  110  A    between atoms: _264  and  _265
REMARK  111  A    between atoms: _264  and  _267
REMARK  112  A    between atoms: _267  and  _268
REMARK  113  A    between atoms: _271  and  _273
REMARK  114  A    between atoms: _273  and  _274
REMARK  115  A    between atoms: _273  and  _276
REMARK  116  A    between atoms: _276  and  _277
REMARK  117  A    between atoms: _279  and  _281
REMARK  118  A    between atoms: _281  and  _282
REMARK  119  A    between atoms: _284  and  _286
REMARK  120  A    between atoms: _286  and  _287
REMARK  121  A    between atoms: _286  and  _289
REMARK  122  A    between atoms: _289  and  _290
REMARK  123  A    between atoms: _292  and  _294
REMARK  124  A    between atoms: _294  and  _295
REMARK  125  A    between atoms: _294  and  _297
REMARK  126  A    between atoms: _297  and  _298
REMARK  127  A    between atoms: _301  and  _303
REMARK  128  A    between atoms: _303  and  _304
REMARK  129  A    between atoms: _303  and  _306
REMARK  130  A    between atoms: _306  and  _307
REMARK  131  A    between atoms: _307  and  _308
REMARK  132  A    between atoms: _308  and  _309
REMARK  133  A    between atoms: _309  and  _310
REMARK  134  A    between atoms: _314  and  _316
REMARK  135  A    between atoms: _316  and  _317
REMARK  136  A    between atoms: _316  and  _319
REMARK  137  A    between atoms: _319  and  _320
REMARK  138  A    between atoms: _320  and  _321
REMARK  139  A    between atoms: _324  and  _326
REMARK  140  A    between atoms: _326  and  _327
REMARK  141  A    between atoms: _326  and  _329
REMARK  142  A    between atoms: _329  and  _330
REMARK  143  A    between atoms: _336  and  _338
REMARK  144  A    between atoms: _338  and  _339
REMARK  145  A    between atoms: _338  and  _341
REMARK  146  A    between atoms: _341  and  _342
REMARK  147  A    between atoms: _348  and  _350
REMARK  148  A    between atoms: _350  and  _351
REMARK  149  A    between atoms: _350  and  _353
REMARK  150  A    between atoms: _356  and  _358
REMARK  151  A    between atoms: _358  and  _359
REMARK  152  A    between atoms: _358  and  _361
REMARK  153  A    between atoms: _361  and  _362
REMARK  154  A    between atoms: _365  and  _367
REMARK  155  A    between atoms: _367  and  _368
REMARK  156  A    between atoms: _371  and  _373
REMARK  157  A    between atoms: _373  and  _374
REMARK  158  A    between atoms: _373  and  _376
REMARK  159  A    between atoms: _379  and  _381
REMARK  160  A    between atoms: _381  and  _382
REMARK  161  A    between atoms: _381  and  _384
REMARK  162  A    between atoms: _384  and  _385
REMARK  163  A    between atoms: _390  and  _391
REMARK  164  A    between atoms: _393  and  _395
REMARK  165  A    between atoms: _395  and  _396
REMARK  166  A    between atoms: _395  and  _398
REMARK  167  A    between atoms: _398  and  _399
REMARK  168  A    between atoms: _402  and  _404
REMARK  169  A    between atoms: _404  and  _405
REMARK  170  A    between atoms: _404  and  _407
REMARK  171  A    between atoms: _407  and  _408
REMARK  172  A    between atoms: _411  and  _413
REMARK  173  A    between atoms: _413  and  _414
REMARK  174  A    between atoms: _413  and  _416
REMARK  175  A    between atoms: _416  and  _417
REMARK  176  A    between atoms: _417  and  _418
REMARK  177  A    between atoms: _421  and  _423
REMARK  178  A    between atoms: _423  and  _424
REMARK  179  A    between atoms: _423  and  _426
REMARK  180  A    between atoms: _426  and  _427
REMARK  181  A    between atoms: _429  and  _431
REMARK  182  A    between atoms: _431  and  _432
REMARK  183  A    between atoms: _431  and  _434
REMARK  184  A    between atoms: _434  and  _435
REMARK  185  A    between atoms: _438  and  _440
REMARK  186  A    between atoms: _440  and  _441
REMARK  187  A    between atoms: _440  and  _443
REMARK  188  A    between atoms: _443  and  _444
REMARK  189  A    between atoms: _444  and  _445
REMARK  190  A    between atoms: _447  and  _449
REMARK  191  A    between atoms: _449  and  _450
REMARK  192  A    between atoms: _449  and  _452
REMARK  193  A    between atoms: _452  and  _453
REMARK  194  A    between atoms: _458  and  _460
REMARK  195  A    between atoms: _460  and  _461
REMARK  196  A    between atoms: _460  and  _463
REMARK  197  A    between atoms: _463  and  _464
REMARK  198  A    between atoms: _464  and  _465
REMARK  199  A    between atoms: _468  and  _470
REMARK  200  A    between atoms: _470  and  _471
REMARK  201  A    between atoms: _470  and  _473
REMARK  202  A    between atoms: _473  and  _474
REMARK  203  A    between atoms: _479  and  _480
REMARK  204  A    between atoms: _482  and  _484
REMARK  205  A    between atoms: _484  and  _485
REMARK  206  A    between atoms: _484  and  _487
REMARK  207  A    between atoms: _487  and  _488
REMARK  208  A    between atoms: _491  and  _493
REMARK  209  A    between atoms: _493  and  _494
REMARK  210  A    between atoms: _493  and  _496
REMARK  211  A    between atoms: _496  and  _497
REMARK  212  A    between atoms: _497  and  _498
REMARK  213  A    between atoms: _498  and  _499
REMARK  214  A    between atoms: _499  and  _500
REMARK  215  A    between atoms: _504  and  _506
REMARK  216  A    between atoms: _506  and  _507
REMARK  217  A    between atoms: _509  and  _511
REMARK  218  A    between atoms: _511  and  _512
REMARK  219  A    between atoms: _511  and  _514
REMARK  220  A    between atoms: _514  and  _515
REMARK  221  A    between atoms: _520  and  _521
REMARK  222  A    between atoms: _523  and  _525
REMARK  223  A    between atoms: _525  and  _526
REMARK  224  A    between atoms: _528  and  _530
REMARK  225  A    between atoms: _530  and  _531
REMARK  226  A    between atoms: _530  and  _533
REMARK  227  A    between atoms: _533  and  _534
REMARK  228  A    between atoms: _534  and  _535
REMARK  229  A    between atoms: _535  and  _536
REMARK  230  A    between atoms: _536  and  _537
REMARK  231  A    between atoms: _541  and  _543
REMARK  232  A    between atoms: _543  and  _544
REMARK  233  A    between atoms: _543  and  _546
REMARK  234  A    between atoms: _546  and  _547
REMARK                            x       y       z     vdW  Elec       q    Type
REMARK                         _______ _______ _______ _____ _____    ______ ____
ROOT
ATOM      1  CA  MET A   1      19.634  21.729  20.591  0.00  0.00    +0.134 C 
ENDROOT
BRANCH   1   2
ATOM      2  N   MET A   1      20.027  21.723  19.183  0.00  0.00    -0.239 NA
ATOM      3  H   MET A   1      19.469  21.164  18.507  0.00  0.00    +0.142 HD
ENDBRANCH   1   2
BRANCH   1   4
ATOM      4  C   MET A   1      18.727  20.521  20.858  0.00  0.00    +0.224 C 
ATOM      5  O   MET A   1      17.873  20.199  20.048  0.00  0.00    -0.287 OA
ENDBRANCH   1   4
BRANCH   1   6
ATOM      6  CB  MET A   1      18.897  23.036  20.920  0.00  0.00    +0.037 C 
BRANCH   6   7
ATOM      7  CG  MET A   1      18.858  23.393  22.401  0.00  0.00    +0.059 C 
BRANCH   7   8
ATOM      8  SD  MET A   1      18.313  25.107  22.715  0.00  0.00    -0.139 S 
ATOM      9  CE  MET A   1      19.847  25.952  22.730  0.00  0.00    +0.069 C 
ENDBRANCH   7   8
ENDBRANCH   6   7
ENDBRANCH   1   6
TORSDOF 5
REMARK  Name = ../refined-set-2016/2p2a/2p2a_pocket.pdb
REMARK  234 active torsions:
REMARK  status: ('A' for Active; 'I' for Inactive)
REMARK    1  A    between atoms: _1  and  _3
REMARK    2  A    between atoms: _3  and  _4
REMARK    3  A    between atoms: _3  and  _6
REMARK    4  A    between atoms: _6  and  _7
REMARK    5  A    between atoms: _10  and  _12
REMARK    6  A    between atoms: _12  and  _13
REMARK    7  A    between atoms: _12  and  _15
REMARK    8  A    between atoms: _15  and  _16
REMARK    9  A    between atoms: _19  and  _21
REMARK   10  A    between atoms: _21  and  _22
REMARK   11  A    between atoms: _21  and  _24
REMARK   12  A    between atoms: _24  and  _25
REMARK   13  A    between atoms: _25  and  _26
REMARK   14  A    between atoms: _29  and  _31
REMARK   15  A    between atoms: _31  and  _32
REMARK   16  A    between atoms: _31  and  _34
REMARK   17  A    between atoms: _34  and  _35
REMARK   18  A    between atoms: _38  and  _39
REMARK   19  A    between atoms: _44  and  _46
REMARK   20  A    between atoms: _46  and  _47
REMARK   21  A    between atoms: _46  and  _49
REMARK   22  A    between atoms: _49  and  _50
REMARK   23  A    between atoms: _55  and  _56
REMARK   24  A    between atoms: _58  and  _60
REMARK   25  A    between atoms: _60  and  _61
REMARK   26  A    between atoms: _60  and  _63
REMARK   27  A    between atoms: _66  and  _68
REMARK   28  A    between atoms: _68  and  _69
REMARK   29  A    between atoms: _68  and  _71
REMARK   30  A    between atoms: _71  and  _72
REMARK   31  A    between atoms: _72  and  _73
REMARK   32  A    between atoms: _73  and  _74
REMARK   33  A    between atoms: _74  and  _75
REMARK   34  A    between atoms: _79  and  _81
REMARK   35  A    between atoms: _81  and  _82
REMARK   36  A    between atoms: _81  and  _84
REMARK   37  A    between atoms: _84  and  _85
REMARK   38  A    between atoms: _90  and  _91
REMARK   39  A    between atoms: _93  and  _95
REMARK   40  A    between atoms: _95  and  _96
REMARK   41  A    between atoms: _98  and  _100
REMARK   42  A    between atoms: _100  and  _101
REMARK   43  A    between atoms: _104  and  _106
REMARK   44  A    between atoms: _106  and  _107
REMARK   45  A    between atoms: _106  and  _109
REMARK   46  A    between atoms: _109  and  _110
REMARK   47  A    between atoms: _110  and  _111
REMARK   48  A    between atoms: _113  and  _115
REMARK   49  A    between atoms: _115  and  _116
REMARK   50  A    between atoms: _115  and  _118
REMARK   51  A    between atoms: _121  and  _123
REMARK   52  A    between atoms: _123  and  _124
REMARK   53  A    between atoms: _128  and  _129
REMARK   54  A    between atoms: _134  and  _136
REMARK   55  A    between atoms: _136  and  _137
REMARK   56  A    between atoms: _136  and  _139
REMARK   57  A    between atoms: _139  and  _140
REMARK   58  A    between atoms: _143  and  _145
REMARK   59  A    between atoms: _145  and  _146
REMARK   60  A    between atoms: _145  and  _148
REMARK   61  A    between atoms: _148  and  _149
REMARK   62  A    between atoms: _152  and  _154
REMARK   63  A    between atoms: _154  and  _155
REMARK   64  A    between atoms: _154  and  _157
REMARK   65  A    between atoms: _157  and  _158
REMARK   66  A    between atoms: _161  and  _163
REMARK   67  A    between atoms: _163  and  _164
REMARK   68  A    between atoms: _163  and  _166
REMARK   69  A    between atoms: _166  and  _167
REMARK   70  A    between atoms: _170  and  _172
REMARK   71  A    between atoms: _172  and  _173
REMARK   72  A    between atoms: _172  and  _175
REMARK   73  A    between atoms: _175  and  _176
REMARK   74  A    between atoms: _176  and  _177
REMARK   75  A    between atoms: _177  and  _178
REMARK   76  A    between atoms: _187  and  _189
REMARK   77  A    between atoms: _189  and  _190
REMARK   78  A    between atoms: _189  and  _192
REMARK   79  A    between atoms: _192  and  _193
REMARK   80  A    between atoms: _199  and  _201
REMARK   81  A    between atoms: _201  and  _202
REMARK   82  A    between atoms: _201  and  _204
REMARK   83  A    between atoms: _204  and  _205
REMARK   84  A    between atoms: _205  and  _206
REMARK   85  A    between atoms: _208  and  _210
REMARK   86  A    between atoms: _210  and  _211
REMARK   87  A    between atoms: _210  and  _213
REMARK   88  A    between atoms: _213  and  _214
REMARK   89  A    between atoms: _217  and  _219
REMARK   90  A    between atoms: _219  and  _220
REMARK   91  A    between atoms: _222  and  _224
REMARK   92  A    between atoms: _224  and  _225
REMARK   93  A    between atoms: _224  and  _227
REMARK   94  A    between atoms: _227  and  _228
REMARK   95  A    between atoms: _231  and  _233
REMARK   96  A    between atoms: _233  and  _234
REMARK   97  A    between atoms: _233  and  _236
REMARK   98  A    between atoms: _236  and  _237
REMARK   99  A    between atoms: _239  and  _241
REMARK  100  A    between atoms: _241  and  _242
REMARK  101  A    between atoms: _244  and  _246
REMARK  102  A    between atoms: _246  and  _247
REMARK  103  A    between atoms: _246  and  _249
REMARK  104  A    between atoms: _249  and  _250
REMARK  105  A    between atoms: _253  and  _255
REMARK  106  A    between atoms: _255  and  _256
REMARK  107  A    between atoms: _255  and  _258
REMARK  108  A    between atoms: _258  and  _259
REMARK  109  A    between atoms: _262  and  _264
REMARK  110  A    between atoms: _264  and  _265
REMARK  111  A    between atoms: _264  and  _267
REMARK  112  A    between atoms: _267  and  _268
REMARK  113  A    between atoms: _271  and  _273
REMARK  114  A    between atoms: _273  and  _274
REMARK  115  A    between atoms: _273  and  _276
REMARK  116  A    between atoms: _276  and  _277
REMARK  117  A    between atoms: _279  and  _281
REMARK  118  A    between atoms: _281  and  _282
REMARK  119  A    between atoms: _284  and  _286
REMARK  120  A    between atoms: _286  and  _287
REMARK  121  A    between atoms: _286  and  _289
REMARK  122  A    between atoms: _289  and  _290
REMARK  123  A    between atoms: _292  and  _294
REMARK  124  A    between atoms: _294  and  _295
REMARK  125  A    between atoms: _294  and  _297
REMARK  126  A    between atoms: _297  and  _298
REMARK  127  A    between atoms: _301  and  _303
REMARK  128  A    between atoms: _303  and  _304
REMARK  129  A    between atoms: _303  and  _306
REMARK  130  A    between atoms: _306  and  _307
REMARK  131  A    between atoms: _307  and  _308
REMARK  132  A    between atoms: _308  and  _309
REMARK  133  A    between atoms: _309  and  _310
REMARK  134  A    between atoms: _314  and  _316
REMARK  135  A    between atoms: _316  and  _317
REMARK  136  A    between atoms: _316  and  _319
REMARK  137  A    between atoms: _319  and  _320
REMARK  138  A    between atoms: _320  and  _321
REMARK  139  A    between atoms: _324  and  _326
REMARK  140  A    between atoms: _326  and  _327
REMARK  141  A    between atoms: _326  and  _329
REMARK  142  A    between atoms: _329  and  _330
REMARK  143  A    between atoms: _336  and  _338
REMARK  144  A    between atoms: _338  and  _339
REMARK  145  A    between atoms: _338  and  _341
REMARK  146  A    between atoms: _341  and  _342
REMARK  147  A    between atoms: _348  and  _350
REMARK  148  A    between atoms: _350  and  _351
REMARK  149  A    between atoms: _350  and  _353
REMARK  150  A    between atoms: _356  and  _358
REMARK  151  A    between atoms: _358  and  _359
REMARK  152  A    between atoms: _358  and  _361
REMARK  153  A    between atoms: _361  and  _362
REMARK  154  A    between atoms: _365  and  _367
REMARK  155  A    between atoms: _367  and  _368
REMARK  156  A    between atoms: _371  and  _373
REMARK  157  A    between atoms: _373  and  _374
REMARK  158  A    between atoms: _373  and  _376
REMARK  159  A    between atoms: _379  and  _381
REMARK  160  A    between atoms: _381  and  _382
REMARK  161  A    between atoms: _381  and  _384
REMARK  162  A    between atoms: _384  and  _385
REMARK  163  A    between atoms: _390  and  _391
REMARK  164  A    between atoms: _393  and  _395
REMARK  165  A    between atoms: _395  and  _396
REMARK  166  A    between atoms: _395  and  _398
REMARK  167  A    between atoms: _398  and  _399
REMARK  168  A    between atoms: _402  and  _404
REMARK  169  A    between atoms: _404  and  _405
REMARK  170  A    between atoms: _404  and  _407
REMARK  171  A    between atoms: _407  and  _408
REMARK  172  A    between atoms: _411  and  _413
REMARK  173  A    between atoms: _413  and  _414
REMARK  174  A    between atoms: _413  and  _416
REMARK  175  A    between atoms: _416  and  _417
REMARK  176  A    between atoms: _417  and  _418
REMARK  177  A    between atoms: _421  and  _423
REMARK  178  A    between atoms: _423  and  _424
REMARK  179  A    between atoms: _423  and  _426
REMARK  180  A    between atoms: _426  and  _427
REMARK  181  A    between atoms: _429  and  _431
REMARK  182  A    between atoms: _431  and  _432
REMARK  183  A    between atoms: _431  and  _434
REMARK  184  A    between atoms: _434  and  _435
REMARK  185  A    between atoms: _438  and  _440
REMARK  186  A    between atoms: _440  and  _441
REMARK  187  A    between atoms: _440  and  _443
REMARK  188  A    between atoms: _443  and  _444
REMARK  189  A    between atoms: _444  and  _445
REMARK  190  A    between atoms: _447  and  _449
REMARK  191  A    between atoms: _449  and  _450
REMARK  192  A    between atoms: _449  and  _452
REMARK  193  A    between atoms: _452  and  _453
REMARK  194  A    between atoms: _458  and  _460
REMARK  195  A    between atoms: _460  and  _461
REMARK  196  A    between atoms: _460  and  _463
REMARK  197  A    between atoms: _463  and  _464
REMARK  198  A    between atoms: _464  and  _465
REMARK  199  A    between atoms: _468  and  _470
REMARK  200  A    between atoms: _470  and  _471
REMARK  201  A    between atoms: _470  and  _473
REMARK  202  A    between atoms: _473  and  _474
REMARK  203  A    between atoms: _479  and  _480
REMARK  204  A    between atoms: _482  and  _484
REMARK  205  A    between atoms: _484  and  _485
REMARK  206  A    between atoms: _484  and  _487
REMARK  207  A    between atoms: _487  and  _488
REMARK  208  A    between atoms: _491  and  _493
REMARK  209  A    between atoms: _493  and  _494
REMARK  210  A    between atoms: _493  and  _496
REMARK  211  A    between atoms: _496  and  _497
REMARK  212  A    between atoms: _497  and  _498
REMARK  213  A    between atoms: _498  and  _499
REMARK  214  A    between atoms: _499  and  _500
REMARK  215  A    between atoms: _504  and  _506
REMARK  216  A    between atoms: _506  and  _507
REMARK  217  A    between atoms: _509  and  _511
REMARK  218  A    between atoms: _511  and  _512
REMARK  219  A    between atoms: _511  and  _514
REMARK  220  A    between atoms: _514  and  _515
REMARK  221  A    between atoms: _520  and  _521
REMARK  222  A    between atoms: _523  and  _525
REMARK  223  A    between atoms: _525  and  _526
REMARK  224  A    between atoms: _528  and  _530
REMARK  225  A    between atoms: _530  and  _531
REMARK  226  A    between atoms: _530  and  _533
REMARK  227  A    between atoms: _533  and  _534
REMARK  228  A    between atoms: _534  and  _535
REMARK  229  A    between atoms: _535  and  _536
REMARK  230  A    between atoms: _536  and  _537
REMARK  231  A    between atoms: _541  and  _543
REMARK  232  A    between atoms: _543  and  _544
REMARK  233  A    between atoms: _543  and  _546
REMARK  234  A    between atoms: _546  and  _547
REMARK                            x       y       z     vdW  Elec       q    Type
REMARK                         _______ _______ _______ _____ _____    ______ ____
ROOT
ATOM      1  C   GLY A   2      10.497  18.035  26.007  0.00  0.00    +0.243 C 
ATOM      2  O   GLY A   2      10.664  19.109  26.581  0.00  0.00    -0.273 OA
ATOM      3  N   ILE A   3       9.298  17.490  25.852  0.00  0.00    -0.297 N 
ATOM      4  H   ILE A   3       9.201  16.596  25.329  0.00  0.00    +0.150 HD
ENDROOT
BRANCH   1   5
ATOM      5  CA  GLY A   2      11.673  17.275  25.427  0.00  0.00    +0.176 C 
BRANCH   5   7
ATOM      6  C   LEU A   1      13.834  17.824  24.496  0.00  0.00    +0.238 C 
ATOM      7  N   GLY A   2      12.821  18.146  25.292  0.00  0.00    -0.296 N 
ATOM      8  H   GLY A   2      12.853  19.038  25.826  0.00  0.00    +0.150 HD
ATOM      9  O   LEU A   1      13.878  16.779  23.847  0.00  0.00    -0.274 OA
BRANCH   6  10
ATOM     10  CA  LEU A   1      14.954  18.852  24.425  0.00  0.00    +0.145 C 
BRANCH  10  11
ATOM     11  N   LEU A   1      15.943  18.539  23.403  0.00  0.00    -0.238 NA
ATOM     12  H   LEU A   1      15.689  17.903  22.621  0.00  0.00    +0.142 HD
ENDBRANCH  10  11
BRANCH  10  13
ATOM     13  CB  LEU A   1      14.333  20.210  24.126  0.00  0.00    +0.026 C 
BRANCH  13  14
ATOM     14  CG  LEU A   1      13.716  20.209  22.723  0.00  0.00    +0.002 C 
ATOM     15  CD2 LEU A   1      12.451  21.041  22.702  0.00  0.00    +0.000 C 
ATOM     16  CD1 LEU A   1      14.752  20.706  21.714  0.00  0.00    +0.000 C 
ENDBRANCH  13  14
ENDBRANCH  10  13
ENDBRANCH   6  10
ENDBRANCH   5   7
ENDBRANCH   1   5
BRANCH   3  17
ATOM     17  CA  ILE A   3       8.116  18.134  26.408  0.00  0.00    +0.149 C 
BRANCH  17  18
ATOM     18  C   ILE A   3       8.239  18.001  27.925  0.00  0.00    +0.241 C 
ATOM     19  N   SER A   4       7.812  19.025  28.660  0.00  0.00    -0.296 N 
ATOM     20  H   SER A   4       7.426  19.865  28.183  0.00  0.00    +0.150 HD
ATOM     21  O   ILE A   3       8.744  16.992  28.416  0.00  0.00    -0.273 OA
BRANCH  19  22
ATOM     22  CA  SER A   4       7.871  19.000  30.124  0.00  0.00    +0.166 C 
BRANCH  22  23
ATOM     23  C   SER A   4       6.633  19.656  30.726  0.00  0.00    +0.229 C 
ATOM     24  O   SER A   4       5.781  20.162  30.006  0.00  0.00    -0.286 OA
ENDBRANCH  22  23
BRANCH  22  25
ATOM     25  CB  SER A   4       9.136  19.708  30.639  0.00  0.00    +0.165 C 
BRANCH  25  26
ATOM     26  OG  SER A   4       9.203  21.059  30.205  0.00  0.00    -0.380 OA
ATOM     27  H   SER A   4       9.214  21.086  29.215  0.00  0.00    +0.211 HD
ENDBRANCH  25  26
ENDBRANCH  22  25
ENDBRANCH  19  22
ENDBRANCH  17  18
BRANCH  17  28
ATOM     28  CB  ILE A   3       6.835  17.430  25.922  0.00  0.00    +0.027 C 
ATOM     29  CG2 ILE A   3       5.609  18.003  26.622  0.00  0.00    +0.002 C 
BRANCH  28  30
ATOM     30  CG1 ILE A   3       6.725  17.573  24.405  0.00  0.00    +0.002 C 
ATOM     31  CD1 ILE A   3       5.584  16.790  23.801  0.00  0.00    +0.000 C 
ENDBRANCH  28  30
ENDBRANCH  17  28
ENDBRANCH   3  17
TORSDOF 14
REMARK  Name = ../refined-set-2016/2p2a/2p2a_pocket.pdb
REMARK  234 active torsions:
REMARK  status: ('A' for Active; 'I' for Inactive)
REMARK    1  A    between atoms: _1  and  _3
REMARK    2  A    between atoms: _3  and  _4
REMARK    3  A    between atoms: _3  and  _6
REMARK    4  A    between atoms: _6  and  _7
REMARK    5  A    between atoms: _10  and  _12
REMARK    6  A    between atoms: _12  and  _13
REMARK    7  A    between atoms: _12  and  _15
REMARK    8  A    between atoms: _15  and  _16
REMARK    9  A    between atoms: _19  and  _21
REMARK   10  A    between atoms: _21  and  _22
REMARK   11  A    between atoms: _21  and  _24
REMARK   12  A    between atoms: _24  and  _25
REMARK   13  A    between atoms: _25  and  _26
REMARK   14  A    between atoms: _29  and  _31
REMARK   15  A    between atoms: _31  and  _32
REMARK   16  A    between atoms: _31  and  _34
REMARK   17  A    between atoms: _34  and  _35
REMARK   18  A    between atoms: _38  and  _39
REMARK   19  A    between atoms: _44  and  _46
REMARK   20  A    between atoms: _46  and  _47
REMARK   21  A    between atoms: _46  and  _49
REMARK   22  A    between atoms: _49  and  _50
REMARK   23  A    between atoms: _55  and  _56
REMARK   24  A    between atoms: _58  and  _60
REMARK   25  A    between atoms: _60  and  _61
REMARK   26  A    between atoms: _60  and  _63
REMARK   27  A    between atoms: _66  and  _68
REMARK   28  A    between atoms: _68  and  _69
REMARK   29  A    between atoms: _68  and  _71
REMARK   30  A    between atoms: _71  and  _72
REMARK   31  A    between atoms: _72  and  _73
REMARK   32  A    between atoms: _73  and  _74
REMARK   33  A    between atoms: _74  and  _75
REMARK   34  A    between atoms: _79  and  _81
REMARK   35  A    between atoms: _81  and  _82
REMARK   36  A    between atoms: _81  and  _84
REMARK   37  A    between atoms: _84  and  _85
REMARK   38  A    between atoms: _90  and  _91
REMARK   39  A    between atoms: _93  and  _95
REMARK   40  A    between atoms: _95  and  _96
REMARK   41  A    between atoms: _98  and  _100
REMARK   42  A    between atoms: _100  and  _101
REMARK   43  A    between atoms: _104  and  _106
REMARK   44  A    between atoms: _106  and  _107
REMARK   45  A    between atoms: _106  and  _109
REMARK   46  A    between atoms: _109  and  _110
REMARK   47  A    between atoms: _110  and  _111
REMARK   48  A    between atoms: _113  and  _115
REMARK   49  A    between atoms: _115  and  _116
REMARK   50  A    between atoms: _115  and  _118
REMARK   51  A    between atoms: _121  and  _123
REMARK   52  A    between atoms: _123  and  _124
REMARK   53  A    between atoms: _128  and  _129
REMARK   54  A    between atoms: _134  and  _136
REMARK   55  A    between atoms: _136  and  _137
REMARK   56  A    between atoms: _136  and  _139
REMARK   57  A    between atoms: _139  and  _140
REMARK   58  A    between atoms: _143  and  _145
REMARK   59  A    between atoms: _145  and  _146
REMARK   60  A    between atoms: _145  and  _148
REMARK   61  A    between atoms: _148  and  _149
REMARK   62  A    between atoms: _152  and  _154
REMARK   63  A    between atoms: _154  and  _155
REMARK   64  A    between atoms: _154  and  _157
REMARK   65  A    between atoms: _157  and  _158
REMARK   66  A    between atoms: _161  and  _163
REMARK   67  A    between atoms: _163  and  _164
REMARK   68  A    between atoms: _163  and  _166
REMARK   69  A    between atoms: _166  and  _167
REMARK   70  A    between atoms: _170  and  _172
REMARK   71  A    between atoms: _172  and  _173
REMARK   72  A    between atoms: _172  and  _175
REMARK   73  A    between atoms: _175  and  _176
REMARK   74  A    between atoms: _176  and  _177
REMARK   75  A    between atoms: _177  and  _178
REMARK   76  A    between atoms: _187  and  _189
REMARK   77  A    between atoms: _189  and  _190
REMARK   78  A    between atoms: _189  and  _192
REMARK   79  A    between atoms: _192  and  _193
REMARK   80  A    between atoms: _199  and  _201
REMARK   81  A    between atoms: _201  and  _202
REMARK   82  A    between atoms: _201  and  _204
REMARK   83  A    between atoms: _204  and  _205
REMARK   84  A    between atoms: _205  and  _206
REMARK   85  A    between atoms: _208  and  _210
REMARK   86  A    between atoms: _210  and  _211
REMARK   87  A    between atoms: _210  and  _213
REMARK   88  A    between atoms: _213  and  _214
REMARK   89  A    between atoms: _217  and  _219
REMARK   90  A    between atoms: _219  and  _220
REMARK   91  A    between atoms: _222  and  _224
REMARK   92  A    between atoms: _224  and  _225
REMARK   93  A    between atoms: _224  and  _227
REMARK   94  A    between atoms: _227  and  _228
REMARK   95  A    between atoms: _231  and  _233
REMARK   96  A    between atoms: _233  and  _234
REMARK   97  A    between atoms: _233  and  _236
REMARK   98  A    between atoms: _236  and  _237
REMARK   99  A    between atoms: _239  and  _241
REMARK  100  A    between atoms: _241  and  _242
REMARK  101  A    between atoms: _244  and  _246
REMARK  102  A    between atoms: _246  and  _247
REMARK  103  A    between atoms: _246  and  _249
REMARK  104  A    between atoms: _249  and  _250
REMARK  105  A    between atoms: _253  and  _255
REMARK  106  A    between atoms: _255  and  _256
REMARK  107  A    between atoms: _255  and  _258
REMARK  108  A    between atoms: _258  and  _259
REMARK  109  A    between atoms: _262  and  _264
REMARK  110  A    between atoms: _264  and  _265
REMARK  111  A    between atoms: _264  and  _267
REMARK  112  A    between atoms: _267  and  _268
REMARK  113  A    between atoms: _271  and  _273
REMARK  114  A    between atoms: _273  and  _274
REMARK  115  A    between atoms: _273  and  _276
REMARK  116  A    between atoms: _276  and  _277
REMARK  117  A    between atoms: _279  and  _281
REMARK  118  A    between atoms: _281  and  _282
REMARK  119  A    between atoms: _284  and  _286
REMARK  120  A    between atoms: _286  and  _287
REMARK  121  A    between atoms: _286  and  _289
REMARK  122  A    between atoms: _289  and  _290
REMARK  123  A    between atoms: _292  and  _294
REMARK  124  A    between atoms: _294  and  _295
REMARK  125  A    between atoms: _294  and  _297
REMARK  126  A    between atoms: _297  and  _298
REMARK  127  A    between atoms: _301  and  _303
REMARK  128  A    between atoms: _303  and  _304
REMARK  129  A    between atoms: _303  and  _306
REMARK  130  A    between atoms: _306  and  _307
REMARK  131  A    between atoms: _307  and  _308
REMARK  132  A    between atoms: _308  and  _309
REMARK  133  A    between atoms: _309  and  _310
REMARK  134  A    between atoms: _314  and  _316
REMARK  135  A    between atoms: _316  and  _317
REMARK  136  A    between atoms: _316  and  _319
REMARK  137  A    between atoms: _319  and  _320
REMARK  138  A    between atoms: _320  and  _321
REMARK  139  A    between atoms: _324  and  _326
REMARK  140  A    between atoms: _326  and  _327
REMARK  141  A    between atoms: _326  and  _329
REMARK  142  A    between atoms: _329  and  _330
REMARK  143  A    between atoms: _336  and  _338
REMARK  144  A    between atoms: _338  and  _339
REMARK  145  A    between atoms: _338  and  _341
REMARK  146  A    between atoms: _341  and  _342
REMARK  147  A    between atoms: _348  and  _350
REMARK  148  A    between atoms: _350  and  _351
REMARK  149  A    between atoms: _350  and  _353
REMARK  150  A    between atoms: _356  and  _358
REMARK  151  A    between atoms: _358  and  _359
REMARK  152  A    between atoms: _358  and  _361
REMARK  153  A    between atoms: _361  and  _362
REMARK  154  A    between atoms: _365  and  _367
REMARK  155  A    between atoms: _367  and  _368
REMARK  156  A    between atoms: _371  and  _373
REMARK  157  A    between atoms: _373  and  _374
REMARK  158  A    between atoms: _373  and  _376
REMARK  159  A    between atoms: _379  and  _381
REMARK  160  A    between atoms: _381  and  _382
REMARK  161  A    between atoms: _381  and  _384
REMARK  162  A    between atoms: _384  and  _385
REMARK  163  A    between atoms: _390  and  _391
REMARK  164  A    between atoms: _393  and  _395
REMARK  165  A    between atoms: _395  and  _396
REMARK  166  A    between atoms: _395  and  _398
REMARK  167  A    between atoms: _398  and  _399
REMARK  168  A    between atoms: _402  and  _404
REMARK  169  A    between atoms: _404  and  _405
REMARK  170  A    between atoms: _404  and  _407
REMARK  171  A    between atoms: _407  and  _408
REMARK  172  A    between atoms: _411  and  _413
REMARK  173  A    between atoms: _413  and  _414
REMARK  174  A    between atoms: _413  and  _416
REMARK  175  A    between atoms: _416  and  _417
REMARK  176  A    between atoms: _417  and  _418
REMARK  177  A    between atoms: _421  and  _423
REMARK  178  A    between atoms: _423  and  _424
REMARK  179  A    between atoms: _423  and  _426
REMARK  180  A    between atoms: _426  and  _427
REMARK  181  A    between atoms: _429  and  _431
REMARK  182  A    between atoms: _431  and  _432
REMARK  183  A    between atoms: _431  and  _434
REMARK  184  A    between atoms: _434  and  _435
REMARK  185  A    between atoms: _438  and  _440
REMARK  186  A    between atoms: _440  and  _441
REMARK  187  A    between atoms: _440  and  _443
REMARK  188  A    between atoms: _443  and  _444
REMARK  189  A    between atoms: _444  and  _445
REMARK  190  A    between atoms: _447  and  _449
REMARK  191  A    between atoms: _449  and  _450
REMARK  192  A    between atoms: _449  and  _452
REMARK  193  A    between atoms: _452  and  _453
REMARK  194  A    between atoms: _458  and  _460
REMARK  195  A    between atoms: _460  and  _461
REMARK  196  A    between atoms: _460  and  _463
REMARK  197  A    between atoms: _463  and  _464
REMARK  198  A    between atoms: _464  and  _465
REMARK  199  A    between atoms: _468  and  _470
REMARK  200  A    between atoms: _470  and  _471
REMARK  201  A    between atoms: _470  and  _473
REMARK  202  A    between atoms: _473  and  _474
REMARK  203  A    between atoms: _479  and  _480
REMARK  204  A    between atoms: _482  and  _484
REMARK  205  A    between atoms: _484  and  _485
REMARK  206  A    between atoms: _484  and  _487
REMARK  207  A    between atoms: _487  and  _488
REMARK  208  A    between atoms: _491  and  _493
REMARK  209  A    between atoms: _493  and  _494
REMARK  210  A    between atoms: _493  and  _496
REMARK  211  A    between atoms: _496  and  _497
REMARK  212  A    between atoms: _497  and  _498
REMARK  213  A    between atoms: _498  and  _499
REMARK  214  A    between atoms: _499  and  _500
REMARK  215  A    between atoms: _504  and  _506
REMARK  216  A    between atoms: _506  and  _507
REMARK  217  A    between atoms: _509  and  _511
REMARK  218  A    between atoms: _511  and  _512
REMARK  219  A    between atoms: _511  and  _514
REMARK  220  A    between atoms: _514  and  _515
REMARK  221  A    between atoms: _520  and  _521
REMARK  222  A    between atoms: _523  and  _525
REMARK  223  A    between atoms: _525  and  _526
REMARK  224  A    between atoms: _528  and  _530
REMARK  225  A    between atoms: _530  and  _531
REMARK  226  A    between atoms: _530  and  _533
REMARK  227  A    between atoms: _533  and  _534
REMARK  228  A    between atoms: _534  and  _535
REMARK  229  A    between atoms: _535  and  _536
REMARK  230  A    between atoms: _536  and  _537
REMARK  231  A    between atoms: _541  and  _543
REMARK  232  A    between atoms: _543  and  _544
REMARK  233  A    between atoms: _543  and  _546
REMARK  234  A    between atoms: _546  and  _547
REMARK                            x       y       z     vdW  Elec       q    Type
REMARK                         _______ _______ _______ _____ _____    ______ ____
ROOT
ATOM      1  C   SER A   7       4.103  19.430  19.200  0.00  0.00    +0.243 C 
ATOM      2  N   THR A   8       3.886  20.169  20.286  0.00  0.00    -0.295 N 
ATOM      3  H   THR A   8       4.066  21.193  20.264  0.00  0.00    +0.150 HD
ATOM      4  O   SER A   7       3.886  18.217  19.177  0.00  0.00    -0.273 OA
ENDROOT
BRANCH   1   5
ATOM      5  CA  SER A   7       4.627  20.141  17.952  0.00  0.00    +0.178 C 
BRANCH   5   7
ATOM      6  C   GLY A   6       3.026  21.939  17.662  0.00  0.00    +0.243 C 
ATOM      7  N   SER A   7       4.275  21.548  17.891  0.00  0.00    -0.295 N 
ATOM      8  H   SER A   7       5.016  22.265  18.029  0.00  0.00    +0.150 HD
ATOM      9  O   GLY A   6       2.095  21.149  17.513  0.00  0.00    -0.273 OA
BRANCH   6  10
ATOM     10  CA  GLY A   6       2.795  23.437  17.615  0.00  0.00    +0.176 C 
BRANCH  10  12
ATOM     11  C   SER A   5       1.252  24.731  16.295  0.00  0.00    +0.243 C 
ATOM     12  N   GLY A   6       1.446  23.812  17.238  0.00  0.00    -0.295 N 
ATOM     13  H   GLY A   6       0.631  23.364  17.704  0.00  0.00    +0.150 HD
ATOM     14  O   SER A   5       2.180  25.298  15.713  0.00  0.00    -0.273 OA
BRANCH  11  15
ATOM     15  CA  SER A   5      -0.197  25.068  15.952  0.00  0.00    +0.178 C 
BRANCH  15  18
ATOM     16  C   ASP A   4      -0.799  25.885  18.161  0.00  0.00    +0.241 C 
ATOM     17  O   ASP A   4       0.160  26.658  18.194  0.00  0.00    -0.273 OA
ATOM     18  N   SER A   5      -1.042  25.079  17.135  0.00  0.00    -0.295 N 
ATOM     19  H   SER A   5      -1.859  24.438  17.178  0.00  0.00    +0.150 HD
BRANCH  16  20
ATOM     20  CA  ASP A   4      -1.790  25.810  19.322  0.00  0.00    +0.160 C 
BRANCH  20  23
ATOM     21  C   LEU A   3      -0.459  25.232  21.283  0.00  0.00    +0.241 C 
ATOM     22  O   LEU A   3      -0.452  24.034  20.992  0.00  0.00    -0.273 OA
ATOM     23  N   ASP A   4      -1.093  26.153  20.561  0.00  0.00    -0.297 N 
ATOM     24  H   ASP A   4      -1.093  27.141  20.886  0.00  0.00    +0.150 HD
BRANCH  21  25
ATOM     25  CA  LEU A   3       0.267  25.732  22.530  0.00  0.00    +0.149 C 
BRANCH  25  28
ATOM     26  C   THR A   2      -0.707  24.427  24.349  0.00  0.00    +0.243 C 
ATOM     27  O   THR A   2      -1.789  25.009  24.279  0.00  0.00    -0.273 OA
ATOM     28  N   LEU A   3       0.324  24.703  23.558  0.00  0.00    -0.297 N 
ATOM     29  H   LEU A   3       1.205  24.164  23.678  0.00  0.00    +0.150 HD
BRANCH  26  30
ATOM     30  CA  THR A   2      -0.480  23.324  25.366  0.00  0.00    +0.176 C 
BRANCH  30  33
ATOM     31  C   GLY A   1      -1.676  22.767  27.404  0.00  0.00    +0.240 C 
ATOM     32  O   GLY A   1      -0.626  22.723  28.057  0.00  0.00    -0.274 OA
ATOM     33  N   THR A   2      -1.703  23.061  26.109  0.00  0.00    -0.295 N 
ATOM     34  H   THR A   2      -2.618  23.104  25.616  0.00  0.00    +0.150 HD
BRANCH  31  35
ATOM     35  CA  GLY A   1      -3.022  22.497  28.057  0.00  0.00    +0.169 C 
BRANCH  35  36
ATOM     36  N   GLY A   1      -2.950  22.490  29.507  0.00  0.00    -0.236 NA
ATOM     37  H   GLY A   1      -2.177  22.999  29.981  0.00  0.00    +0.142 HD
ENDBRANCH  35  36
ENDBRANCH  31  35
ENDBRANCH  30  33
BRANCH  30  38
ATOM     38  CB  THR A   2      -0.009  22.072  24.610  0.00  0.00    +0.137 C 
ATOM     39  CG2 THR A   2       0.151  20.899  25.561  0.00  0.00    +0.034 C 
BRANCH  38  40
ATOM     40  OG1 THR A   2      -0.980  21.727  23.615  0.00  0.00    -0.382 OA
ATOM     41  HG1 THR A   2      -0.678  20.920  23.127  0.00  0.00    +0.210 HD
ENDBRANCH  38  40
ENDBRANCH  30  38
ENDBRANCH  26  30
ENDBRANCH  25  28
BRANCH  25  42
ATOM     42  CB  LEU A   3       1.689  26.153  22.153  0.00  0.00    +0.029 C 
BRANCH  42  43
ATOM     43  CG  LEU A   3       1.862  27.058  20.931  0.00  0.00    +0.002 C 
ATOM     44  CD2 LEU A   3       1.419  28.479  21.273  0.00  0.00    +0.000 C 
ATOM     45  CD1 LEU A   3       3.320  27.050  20.499  0.00  0.00    +0.000 C 
ENDBRANCH  42  43
ENDBRANCH  25  42
ENDBRANCH  21  25
ENDBRANCH  20  23
BRANCH  20  46
ATOM     46  CB  ASP A   4      -2.936  26.789  19.027  0.00  0.00    +0.143 C 
BRANCH  46  47
ATOM     47  CG  ASP A   4      -4.245  26.393  19.692  0.00  0.00    +0.367 C 
ATOM     48  OD2 ASP A   4      -4.919  27.293  20.234  0.00  0.00    -0.246 OA
ATOM     49  OD1 ASP A   4      -4.613  25.197  19.654  0.00  0.00    -0.246 OA
ENDBRANCH  46  47
ENDBRANCH  20  46
ENDBRANCH  16  20
ENDBRANCH  15  18
BRANCH  15  50
ATOM     50  CB  SER A   5      -0.251  26.441  15.273  0.00  0.00    +0.166 C 
BRANCH  50  51
ATOM     51  OG  SER A   5      -1.578  26.936  15.215  0.00  0.00    -0.380 OA
ATOM     52  H   SER A   5      -1.580  27.822  14.772  0.00  0.00    +0.211 HD
ENDBRANCH  50  51
ENDBRANCH  15  50
ENDBRANCH  11  15
ENDBRANCH  10  12
ENDBRANCH   6  10
ENDBRANCH   5   7
BRANCH   5  53
ATOM     53  CB  SER A   7       6.148  19.972  17.857  0.00  0.00    +0.166 C 
BRANCH  53  54
ATOM     54  OG  SER A   7       6.827  20.654  18.894  0.00  0.00    -0.380 OA
ATOM     55  H   SER A   7       6.532  20.299  19.770  0.00  0.00    +0.211 HD
ENDBRANCH  53  54
ENDBRANCH   5  53
ENDBRANCH   1   5
BRANCH   2  56
ATOM     56  CA  THR A   8       3.395  19.541  21.507  0.00  0.00    +0.176 C 
BRANCH  56  57
ATOM     57  C   THR A   8       1.944  19.073  21.396  0.00  0.00    +0.243 C 
ATOM     58  O   THR A   8       1.611  17.957  21.795  0.00  0.00    -0.273 OA
ATOM     59  N   LYS A   9       1.080  19.930  20.872  0.00  0.00    -0.297 N 
ATOM     60  H   LYS A   9       1.404  20.872  20.575  0.00  0.00    +0.150 HD
BRANCH  59  61
ATOM     61  CA  LYS A   9      -0.319  19.563  20.709  0.00  0.00    +0.149 C 
BRANCH  61  62
ATOM     62  C   LYS A   9      -0.380  18.306  19.835  0.00  0.00    +0.241 C 
ATOM     63  O   LYS A   9      -0.975  17.299  20.215  0.00  0.00    -0.273 OA
ATOM     64  N   GLU A  10       0.266  18.375  18.674  0.00  0.00    -0.297 N 
ATOM     65  H   GLU A  10       0.760  19.257  18.431  0.00  0.00    +0.150 HD
BRANCH  64  66
ATOM     66  CA  GLU A  10       0.311  17.264  17.724  0.00  0.00    +0.149 C 
BRANCH  66  67
ATOM     67  C   GLU A  10       0.828  15.971  18.364  0.00  0.00    +0.241 C 
ATOM     68  N   PHE A  11       1.840  16.083  19.225  0.00  0.00    -0.297 N 
ATOM     69  H   PHE A  11       2.239  17.024  19.418  0.00  0.00    +0.150 HD
ATOM     70  O   GLU A  10       0.316  14.892  18.080  0.00  0.00    -0.273 OA
BRANCH  68  71
ATOM     71  CA  PHE A  11       2.404  14.915  19.907  0.00  0.00    +0.153 C 
BRANCH  71  72
ATOM     72  C   PHE A  11       1.327  14.176  20.701  0.00  0.00    +0.241 C 
ATOM     73  N   PHE A  12       0.564  14.926  21.485  0.00  0.00    -0.298 N 
ATOM     74  H   PHE A  12       0.731  15.952  21.529  0.00  0.00    +0.150 HD
ATOM     75  O   PHE A  11       1.203  12.953  20.618  0.00  0.00    -0.273 OA
BRANCH  73  76
ATOM     76  CA  PHE A  12      -0.501  14.342  22.285  0.00  0.00    +0.141 C 
BRANCH  76  77
ATOM     77  C   PHE A  12      -1.633  13.823  21.398  0.00  0.00    +0.227 C 
ATOM     78  O   PHE A  12      -2.171  12.740  21.637  0.00  0.00    -0.286 OA
ENDBRANCH  76  77
BRANCH  76  79
ATOM     79  CB  PHE A  12      -1.034  15.381  23.271  0.00  0.00    +0.054 C 
BRANCH  79  80
ATOM     80  CG  PHE A  12      -0.131  15.613  24.444  0.00  0.00    -0.020 A 
ATOM     81  CD2 PHE A  12      -0.114  14.715  25.505  0.00  0.00    -0.004 A 
ATOM     82  CE2 PHE A  12       0.735  14.909  26.588  0.00  0.00    -0.000 A 
ATOM     83  CZ  PHE A  12       1.580  16.016  26.617  0.00  0.00    -0.000 A 
ATOM     84  CE1 PHE A  12       1.571  16.920  25.562  0.00  0.00    -0.000 A 
ATOM     85  CD1 PHE A  12       0.716  16.714  24.482  0.00  0.00    -0.004 A 
ENDBRANCH  79  80
ENDBRANCH  76  79
ENDBRANCH  73  76
ENDBRANCH  71  72
BRANCH  71  86
ATOM     86  CB  PHE A  11       3.522  15.334  20.868  0.00  0.00    +0.055 C 
BRANCH  86  87
ATOM     87  CG  PHE A  11       3.880  14.275  21.877  0.00  0.00    -0.020 A 
ATOM     88  CD2 PHE A  11       3.444  14.377  23.196  0.00  0.00    -0.004 A 
ATOM     89  CE2 PHE A  11       3.731  13.376  24.129  0.00  0.00    -0.000 A 
ATOM     90  CZ  PHE A  11       4.466  12.259  23.742  0.00  0.00    -0.000 A 
ATOM     91  CE1 PHE A  11       4.910  12.146  22.429  0.00  0.00    -0.000 A 
ATOM     92  CD1 PHE A  11       4.614  13.156  21.503  0.00  0.00    -0.004 A 
ENDBRANCH  86  87
ENDBRANCH  71  86
ENDBRANCH  68  71
ENDBRANCH  66  67
BRANCH  66  93
ATOM     93  CB  GLU A  10       1.192  17.651  16.529  0.00  0.00    +0.041 C 
BRANCH  93  94
ATOM     94  CG  GLU A  10       1.267  16.619  15.407  0.00  0.00    +0.116 C 
BRANCH  94  95
ATOM     95  CD  GLU A  10      -0.085  16.328  14.768  0.00  0.00    +0.365 C 
ATOM     96  OE2 GLU A  10      -0.974  17.207  14.815  0.00  0.00    -0.246 OA
ATOM     97  OE1 GLU A  10      -0.246  15.223  14.206  0.00  0.00    -0.246 OA
ENDBRANCH  94  95
ENDBRANCH  93  94
ENDBRANCH  66  93
ENDBRANCH  64  66
ENDBRANCH  61  62
BRANCH  61  98
ATOM     98  CB  LYS A   9      -1.079  20.711  20.043  0.00  0.00    +0.029 C 
BRANCH  98  99
ATOM     99  CG  LYS A   9      -2.584  20.528  19.994  0.00  0.00    +0.000 C 
BRANCH  99 100
ATOM    100  CD  LYS A   9      -3.255  21.791  19.476  0.00  0.00    -0.024 C 
BRANCH 100 101
ATOM    101  CE  LYS A   9      -4.773  21.664  19.450  0.00  0.00    -0.086 C 
BRANCH 101 102
ATOM    102  NZ  LYS A   9      -5.405  22.964  19.084  0.00  0.00    +0.380 N 
ATOM    103  HZ1 LYS A   9      -5.140  23.686  19.784  0.00  0.00    -0.089 HD
ATOM    104  HZ2 LYS A   9      -6.439  22.854  19.072  0.00  0.00    -0.089 HD
ATOM    105  HZ3 LYS A   9      -5.075  23.255  18.142  0.00  0.00    -0.089 HD
ENDBRANCH 101 102
ENDBRANCH 100 101
ENDBRANCH  99 100
ENDBRANCH  98  99
ENDBRANCH  61  98
ENDBRANCH  59  61
ENDBRANCH  56  57
BRANCH  56 106
ATOM    106  CB  THR A   8       3.509  20.476  22.712  0.00  0.00    +0.137 C 
ATOM    107  CG2 THR A   8       2.949  19.795  23.955  0.00  0.00    +0.034 C 
BRANCH 106 108
ATOM    108  OG1 THR A   8       4.887  20.805  22.931  0.00  0.00    -0.382 OA
ATOM    109  HG1 THR A   8       5.399  19.976  23.106  0.00  0.00    +0.210 HD
ENDBRANCH 106 108
ENDBRANCH  56 106
ENDBRANCH   2  56
TORSDOF 48
REMARK  Name = ../refined-set-2016/2p2a/2p2a_pocket.pdb
REMARK  234 active torsions:
REMARK  status: ('A' for Active; 'I' for Inactive)
REMARK    1  A    between atoms: _1  and  _3
REMARK    2  A    between atoms: _3  and  _4
REMARK    3  A    between atoms: _3  and  _6
REMARK    4  A    between atoms: _6  and  _7
REMARK    5  A    between atoms: _10  and  _12
REMARK    6  A    between atoms: _12  and  _13
REMARK    7  A    between atoms: _12  and  _15
REMARK    8  A    between atoms: _15  and  _16
REMARK    9  A    between atoms: _19  and  _21
REMARK   10  A    between atoms: _21  and  _22
REMARK   11  A    between atoms: _21  and  _24
REMARK   12  A    between atoms: _24  and  _25
REMARK   13  A    between atoms: _25  and  _26
REMARK   14  A    between atoms: _29  and  _31
REMARK   15  A    between atoms: _31  and  _32
REMARK   16  A    between atoms: _31  and  _34
REMARK   17  A    between atoms: _34  and  _35
REMARK   18  A    between atoms: _38  and  _39
REMARK   19  A    between atoms: _44  and  _46
REMARK   20  A    between atoms: _46  and  _47
REMARK   21  A    between atoms: _46  and  _49
REMARK   22  A    between atoms: _49  and  _50
REMARK   23  A    between atoms: _55  and  _56
REMARK   24  A    between atoms: _58  and  _60
REMARK   25  A    between atoms: _60  and  _61
REMARK   26  A    between atoms: _60  and  _63
REMARK   27  A    between atoms: _66  and  _68
REMARK   28  A    between atoms: _68  and  _69
REMARK   29  A    between atoms: _68  and  _71
REMARK   30  A    between atoms: _71  and  _72
REMARK   31  A    between atoms: _72  and  _73
REMARK   32  A    between atoms: _73  and  _74
REMARK   33  A    between atoms: _74  and  _75
REMARK   34  A    between atoms: _79  and  _81
REMARK   35  A    between atoms: _81  and  _82
REMARK   36  A    between atoms: _81  and  _84
REMARK   37  A    between atoms: _84  and  _85
REMARK   38  A    between atoms: _90  and  _91
REMARK   39  A    between atoms: _93  and  _95
REMARK   40  A    between atoms: _95  and  _96
REMARK   41  A    between atoms: _98  and  _100
REMARK   42  A    between atoms: _100  and  _101
REMARK   43  A    between atoms: _104  and  _106
REMARK   44  A    between atoms: _106  and  _107
REMARK   45  A    between atoms: _106  and  _109
REMARK   46  A    between atoms: _109  and  _110
REMARK   47  A    between atoms: _110  and  _111
REMARK   48  A    between atoms: _113  and  _115
REMARK   49  A    between atoms: _115  and  _116
REMARK   50  A    between atoms: _115  and  _118
REMARK   51  A    between atoms: _121  and  _123
REMARK   52  A    between atoms: _123  and  _124
REMARK   53  A    between atoms: _128  and  _129
REMARK   54  A    between atoms: _134  and  _136
REMARK   55  A    between atoms: _136  and  _137
REMARK   56  A    between atoms: _136  and  _139
REMARK   57  A    between atoms: _139  and  _140
REMARK   58  A    between atoms: _143  and  _145
REMARK   59  A    between atoms: _145  and  _146
REMARK   60  A    between atoms: _145  and  _148
REMARK   61  A    between atoms: _148  and  _149
REMARK   62  A    between atoms: _152  and  _154
REMARK   63  A    between atoms: _154  and  _155
REMARK   64  A    between atoms: _154  and  _157
REMARK   65  A    between atoms: _157  and  _158
REMARK   66  A    between atoms: _161  and  _163
REMARK   67  A    between atoms: _163  and  _164
REMARK   68  A    between atoms: _163  and  _166
REMARK   69  A    between atoms: _166  and  _167
REMARK   70  A    between atoms: _170  and  _172
REMARK   71  A    between atoms: _172  and  _173
REMARK   72  A    between atoms: _172  and  _175
REMARK   73  A    between atoms: _175  and  _176
REMARK   74  A    between atoms: _176  and  _177
REMARK   75  A    between atoms: _177  and  _178
REMARK   76  A    between atoms: _187  and  _189
REMARK   77  A    between atoms: _189  and  _190
REMARK   78  A    between atoms: _189  and  _192
REMARK   79  A    between atoms: _192  and  _193
REMARK   80  A    between atoms: _199  and  _201
REMARK   81  A    between atoms: _201  and  _202
REMARK   82  A    between atoms: _201  and  _204
REMARK   83  A    between atoms: _204  and  _205
REMARK   84  A    between atoms: _205  and  _206
REMARK   85  A    between atoms: _208  and  _210
REMARK   86  A    between atoms: _210  and  _211
REMARK   87  A    between atoms: _210  and  _213
REMARK   88  A    between atoms: _213  and  _214
REMARK   89  A    between atoms: _217  and  _219
REMARK   90  A    between atoms: _219  and  _220
REMARK   91  A    between atoms: _222  and  _224
REMARK   92  A    between atoms: _224  and  _225
REMARK   93  A    between atoms: _224  and  _227
REMARK   94  A    between atoms: _227  and  _228
REMARK   95  A    between atoms: _231  and  _233
REMARK   96  A    between atoms: _233  and  _234
REMARK   97  A    between atoms: _233  and  _236
REMARK   98  A    between atoms: _236  and  _237
REMARK   99  A    between atoms: _239  and  _241
REMARK  100  A    between atoms: _241  and  _242
REMARK  101  A    between atoms: _244  and  _246
REMARK  102  A    between atoms: _246  and  _247
REMARK  103  A    between atoms: _246  and  _249
REMARK  104  A    between atoms: _249  and  _250
REMARK  105  A    between atoms: _253  and  _255
REMARK  106  A    between atoms: _255  and  _256
REMARK  107  A    between atoms: _255  and  _258
REMARK  108  A    between atoms: _258  and  _259
REMARK  109  A    between atoms: _262  and  _264
REMARK  110  A    between atoms: _264  and  _265
REMARK  111  A    between atoms: _264  and  _267
REMARK  112  A    between atoms: _267  and  _268
REMARK  113  A    between atoms: _271  and  _273
REMARK  114  A    between atoms: _273  and  _274
REMARK  115  A    between atoms: _273  and  _276
REMARK  116  A    between atoms: _276  and  _277
REMARK  117  A    between atoms: _279  and  _281
REMARK  118  A    between atoms: _281  and  _282
REMARK  119  A    between atoms: _284  and  _286
REMARK  120  A    between atoms: _286  and  _287
REMARK  121  A    between atoms: _286  and  _289
REMARK  122  A    between atoms: _289  and  _290
REMARK  123  A    between atoms: _292  and  _294
REMARK  124  A    between atoms: _294  and  _295
REMARK  125  A    between atoms: _294  and  _297
REMARK  126  A    between atoms: _297  and  _298
REMARK  127  A    between atoms: _301  and  _303
REMARK  128  A    between atoms: _303  and  _304
REMARK  129  A    between atoms: _303  and  _306
REMARK  130  A    between atoms: _306  and  _307
REMARK  131  A    between atoms: _307  and  _308
REMARK  132  A    between atoms: _308  and  _309
REMARK  133  A    between atoms: _309  and  _310
REMARK  134  A    between atoms: _314  and  _316
REMARK  135  A    between atoms: _316  and  _317
REMARK  136  A    between atoms: _316  and  _319
REMARK  137  A    between atoms: _319  and  _320
REMARK  138  A    between atoms: _320  and  _321
REMARK  139  A    between atoms: _324  and  _326
REMARK  140  A    between atoms: _326  and  _327
REMARK  141  A    between atoms: _326  and  _329
REMARK  142  A    between atoms: _329  and  _330
REMARK  143  A    between atoms: _336  and  _338
REMARK  144  A    between atoms: _338  and  _339
REMARK  145  A    between atoms: _338  and  _341
REMARK  146  A    between atoms: _341  and  _342
REMARK  147  A    between atoms: _348  and  _350
REMARK  148  A    between atoms: _350  and  _351
REMARK  149  A    between atoms: _350  and  _353
REMARK  150  A    between atoms: _356  and  _358
REMARK  151  A    between atoms: _358  and  _359
REMARK  152  A    between atoms: _358  and  _361
REMARK  153  A    between atoms: _361  and  _362
REMARK  154  A    between atoms: _365  and  _367
REMARK  155  A    between atoms: _367  and  _368
REMARK  156  A    between atoms: _371  and  _373
REMARK  157  A    between atoms: _373  and  _374
REMARK  158  A    between atoms: _373  and  _376
REMARK  159  A    between atoms: _379  and  _381
REMARK  160  A    between atoms: _381  and  _382
REMARK  161  A    between atoms: _381  and  _384
REMARK  162  A    between atoms: _384  and  _385
REMARK  163  A    between atoms: _390  and  _391
REMARK  164  A    between atoms: _393  and  _395
REMARK  165  A    between atoms: _395  and  _396
REMARK  166  A    between atoms: _395  and  _398
REMARK  167  A    between atoms: _398  and  _399
REMARK  168  A    between atoms: _402  and  _404
REMARK  169  A    between atoms: _404  and  _405
REMARK  170  A    between atoms: _404  and  _407
REMARK  171  A    between atoms: _407  and  _408
REMARK  172  A    between atoms: _411  and  _413
REMARK  173  A    between atoms: _413  and  _414
REMARK  174  A    between atoms: _413  and  _416
REMARK  175  A    between atoms: _416  and  _417
REMARK  176  A    between atoms: _417  and  _418
REMARK  177  A    between atoms: _421  and  _423
REMARK  178  A    between atoms: _423  and  _424
REMARK  179  A    between atoms: _423  and  _426
REMARK  180  A    between atoms: _426  and  _427
REMARK  181  A    between atoms: _429  and  _431
REMARK  182  A    between atoms: _431  and  _432
REMARK  183  A    between atoms: _431  and  _434
REMARK  184  A    between atoms: _434  and  _435
REMARK  185  A    between atoms: _438  and  _440
REMARK  186  A    between atoms: _440  and  _441
REMARK  187  A    between atoms: _440  and  _443
REMARK  188  A    between atoms: _443  and  _444
REMARK  189  A    between atoms: _444  and  _445
REMARK  190  A    between atoms: _447  and  _449
REMARK  191  A    between atoms: _449  and  _450
REMARK  192  A    between atoms: _449  and  _452
REMARK  193  A    between atoms: _452  and  _453
REMARK  194  A    between atoms: _458  and  _460
REMARK  195  A    between atoms: _460  and  _461
REMARK  196  A    between atoms: _460  and  _463
REMARK  197  A    between atoms: _463  and  _464
REMARK  198  A    between atoms: _464  and  _465
REMARK  199  A    between atoms: _468  and  _470
REMARK  200  A    between atoms: _470  and  _471
REMARK  201  A    between atoms: _470  and  _473
REMARK  202  A    between atoms: _473  and  _474
REMARK  203  A    between atoms: _479  and  _480
REMARK  204  A    between atoms: _482  and  _484
REMARK  205  A    between atoms: _484  and  _485
REMARK  206  A    between atoms: _484  and  _487
REMARK  207  A    between atoms: _487  and  _488
REMARK  208  A    between atoms: _491  and  _493
REMARK  209  A    between atoms: _493  and  _494
REMARK  210  A    between atoms: _493  and  _496
REMARK  211  A    between atoms: _496  and  _497
REMARK  212  A    between atoms: _497  and  _498
REMARK  213  A    between atoms: _498  and  _499
REMARK  214  A    between atoms: _499  and  _500
REMARK  215  A    between atoms: _504  and  _506
REMARK  216  A    between atoms: _506  and  _507
REMARK  217  A    between atoms: _509  and  _511
REMARK  218  A    between atoms: _511  and  _512
REMARK  219  A    between atoms: _511  and  _514
REMARK  220  A    between atoms: _514  and  _515
REMARK  221  A    between atoms: _520  and  _521
REMARK  222  A    between atoms: _523  and  _525
REMARK  223  A    between atoms: _525  and  _526
REMARK  224  A    between atoms: _528  and  _530
REMARK  225  A    between atoms: _530  and  _531
REMARK  226  A    between atoms: _530  and  _533
REMARK  227  A    between atoms: _533  and  _534
REMARK  228  A    between atoms: _534  and  _535
REMARK  229  A    between atoms: _535  and  _536
REMARK  230  A    between atoms: _536  and  _537
REMARK  231  A    between atoms: _541  and  _543
REMARK  232  A    between atoms: _543  and  _544
REMARK  233  A    between atoms: _543  and  _546
REMARK  234  A    between atoms: _546  and  _547
REMARK                            x       y       z     vdW  Elec       q    Type
REMARK                         _______ _______ _______ _____ _____    ______ ____
ROOT
ATOM      1  CA  VAL A   1      -2.980  29.096  24.139  0.00  0.00    +0.133 C 
ENDROOT
BRANCH   1   2
ATOM      2  CB  VAL A   1      -1.889  29.424  25.194  0.00  0.00    +0.023 C 
ATOM      3  CG2 VAL A   1      -2.474  29.318  26.597  0.00  0.00    +0.002 C 
ATOM      4  CG1 VAL A   1      -0.712  28.478  25.041  0.00  0.00    +0.002 C 
ENDBRANCH   1   2
BRANCH   1   5
ATOM      5  N   VAL A   1      -3.421  27.711  24.247  0.00  0.00    -0.239 NA
ATOM      6  H   VAL A   1      -2.748  26.946  24.039  0.00  0.00    +0.142 HD
ENDBRANCH   1   5
BRANCH   1   7
ATOM      7  C   VAL A   1      -2.436  29.396  22.748  0.00  0.00    +0.224 C 
ATOM      8  O   VAL A   1      -1.941  28.500  22.060  0.00  0.00    -0.287 OA
ENDBRANCH   1   7
TORSDOF 3
REMARK  Name = ../refined-set-2016/2p2a/2p2a_pocket.pdb
REMARK  234 active torsions:
REMARK  status: ('A' for Active; 'I' for Inactive)
REMARK    1  A    between atoms: _1  and  _3
REMARK    2  A    between atoms: _3  and  _4
REMARK    3  A    between atoms: _3  and  _6
REMARK    4  A    between atoms: _6  and  _7
REMARK    5  A    between atoms: _10  and  _12
REMARK    6  A    between atoms: _12  and  _13
REMARK    7  A    between atoms: _12  and  _15
REMARK    8  A    between atoms: _15  and  _16
REMARK    9  A    between atoms: _19  and  _21
REMARK   10  A    between atoms: _21  and  _22
REMARK   11  A    between atoms: _21  and  _24
REMARK   12  A    between atoms: _24  and  _25
REMARK   13  A    between atoms: _25  and  _26
REMARK   14  A    between atoms: _29  and  _31
REMARK   15  A    between atoms: _31  and  _32
REMARK   16  A    between atoms: _31  and  _34
REMARK   17  A    between atoms: _34  and  _35
REMARK   18  A    between atoms: _38  and  _39
REMARK   19  A    between atoms: _44  and  _46
REMARK   20  A    between atoms: _46  and  _47
REMARK   21  A    between atoms: _46  and  _49
REMARK   22  A    between atoms: _49  and  _50
REMARK   23  A    between atoms: _55  and  _56
REMARK   24  A    between atoms: _58  and  _60
REMARK   25  A    between atoms: _60  and  _61
REMARK   26  A    between atoms: _60  and  _63
REMARK   27  A    between atoms: _66  and  _68
REMARK   28  A    between atoms: _68  and  _69
REMARK   29  A    between atoms: _68  and  _71
REMARK   30  A    between atoms: _71  and  _72
REMARK   31  A    between atoms: _72  and  _73
REMARK   32  A    between atoms: _73  and  _74
REMARK   33  A    between atoms: _74  and  _75
REMARK   34  A    between atoms: _79  and  _81
REMARK   35  A    between atoms: _81  and  _82
REMARK   36  A    between atoms: _81  and  _84
REMARK   37  A    between atoms: _84  and  _85
REMARK   38  A    between atoms: _90  and  _91
REMARK   39  A    between atoms: _93  and  _95
REMARK   40  A    between atoms: _95  and  _96
REMARK   41  A    between atoms: _98  and  _100
REMARK   42  A    between atoms: _100  and  _101
REMARK   43  A    between atoms: _104  and  _106
REMARK   44  A    between atoms: _106  and  _107
REMARK   45  A    between atoms: _106  and  _109
REMARK   46  A    between atoms: _109  and  _110
REMARK   47  A    between atoms: _110  and  _111
REMARK   48  A    between atoms: _113  and  _115
REMARK   49  A    between atoms: _115  and  _116
REMARK   50  A    between atoms: _115  and  _118
REMARK   51  A    between atoms: _121  and  _123
REMARK   52  A    between atoms: _123  and  _124
REMARK   53  A    between atoms: _128  and  _129
REMARK   54  A    between atoms: _134  and  _136
REMARK   55  A    between atoms: _136  and  _137
REMARK   56  A    between atoms: _136  and  _139
REMARK   57  A    between atoms: _139  and  _140
REMARK   58  A    between atoms: _143  and  _145
REMARK   59  A    between atoms: _145  and  _146
REMARK   60  A    between atoms: _145  and  _148
REMARK   61  A    between atoms: _148  and  _149
REMARK   62  A    between atoms: _152  and  _154
REMARK   63  A    between atoms: _154  and  _155
REMARK   64  A    between atoms: _154  and  _157
REMARK   65  A    between atoms: _157  and  _158
REMARK   66  A    between atoms: _161  and  _163
REMARK   67  A    between atoms: _163  and  _164
REMARK   68  A    between atoms: _163  and  _166
REMARK   69  A    between atoms: _166  and  _167
REMARK   70  A    between atoms: _170  and  _172
REMARK   71  A    between atoms: _172  and  _173
REMARK   72  A    between atoms: _172  and  _175
REMARK   73  A    between atoms: _175  and  _176
REMARK   74  A    between atoms: _176  and  _177
REMARK   75  A    between atoms: _177  and  _178
REMARK   76  A    between atoms: _187  and  _189
REMARK   77  A    between atoms: _189  and  _190
REMARK   78  A    between atoms: _189  and  _192
REMARK   79  A    between atoms: _192  and  _193
REMARK   80  A    between atoms: _199  and  _201
REMARK   81  A    between atoms: _201  and  _202
REMARK   82  A    between atoms: _201  and  _204
REMARK   83  A    between atoms: _204  and  _205
REMARK   84  A    between atoms: _205  and  _206
REMARK   85  A    between atoms: _208  and  _210
REMARK   86  A    between atoms: _210  and  _211
REMARK   87  A    between atoms: _210  and  _213
REMARK   88  A    between atoms: _213  and  _214
REMARK   89  A    between atoms: _217  and  _219
REMARK   90  A    between atoms: _219  and  _220
REMARK   91  A    between atoms: _222  and  _224
REMARK   92  A    between atoms: _224  and  _225
REMARK   93  A    between atoms: _224  and  _227
REMARK   94  A    between atoms: _227  and  _228
REMARK   95  A    between atoms: _231  and  _233
REMARK   96  A    between atoms: _233  and  _234
REMARK   97  A    between atoms: _233  and  _236
REMARK   98  A    between atoms: _236  and  _237
REMARK   99  A    between atoms: _239  and  _241
REMARK  100  A    between atoms: _241  and  _242
REMARK  101  A    between atoms: _244  and  _246
REMARK  102  A    between atoms: _246  and  _247
REMARK  103  A    between atoms: _246  and  _249
REMARK  104  A    between atoms: _249  and  _250
REMARK  105  A    between atoms: _253  and  _255
REMARK  106  A    between atoms: _255  and  _256
REMARK  107  A    between atoms: _255  and  _258
REMARK  108  A    between atoms: _258  and  _259
REMARK  109  A    between atoms: _262  and  _264
REMARK  110  A    between atoms: _264  and  _265
REMARK  111  A    between atoms: _264  and  _267
REMARK  112  A    between atoms: _267  and  _268
REMARK  113  A    between atoms: _271  and  _273
REMARK  114  A    between atoms: _273  and  _274
REMARK  115  A    between atoms: _273  and  _276
REMARK  116  A    between atoms: _276  and  _277
REMARK  117  A    between atoms: _279  and  _281
REMARK  118  A    between atoms: _281  and  _282
REMARK  119  A    between atoms: _284  and  _286
REMARK  120  A    between atoms: _286  and  _287
REMARK  121  A    between atoms: _286  and  _289
REMARK  122  A    between atoms: _289  and  _290
REMARK  123  A    between atoms: _292  and  _294
REMARK  124  A    between atoms: _294  and  _295
REMARK  125  A    between atoms: _294  and  _297
REMARK  126  A    between atoms: _297  and  _298
REMARK  127  A    between atoms: _301  and  _303
REMARK  128  A    between atoms: _303  and  _304
REMARK  129  A    between atoms: _303  and  _306
REMARK  130  A    between atoms: _306  and  _307
REMARK  131  A    between atoms: _307  and  _308
REMARK  132  A    between atoms: _308  and  _309
REMARK  133  A    between atoms: _309  and  _310
REMARK  134  A    between atoms: _314  and  _316
REMARK  135  A    between atoms: _316  and  _317
REMARK  136  A    between atoms: _316  and  _319
REMARK  137  A    between atoms: _319  and  _320
REMARK  138  A    between atoms: _320  and  _321
REMARK  139  A    between atoms: _324  and  _326
REMARK  140  A    between atoms: _326  and  _327
REMARK  141  A    between atoms: _326  and  _329
REMARK  142  A    between atoms: _329  and  _330
REMARK  143  A    between atoms: _336  and  _338
REMARK  144  A    between atoms: _338  and  _339
REMARK  145  A    between atoms: _338  and  _341
REMARK  146  A    between atoms: _341  and  _342
REMARK  147  A    between atoms: _348  and  _350
REMARK  148  A    between atoms: _350  and  _351
REMARK  149  A    between atoms: _350  and  _353
REMARK  150  A    between atoms: _356  and  _358
REMARK  151  A    between atoms: _358  and  _359
REMARK  152  A    between atoms: _358  and  _361
REMARK  153  A    between atoms: _361  and  _362
REMARK  154  A    between atoms: _365  and  _367
REMARK  155  A    between atoms: _367  and  _368
REMARK  156  A    between atoms: _371  and  _373
REMARK  157  A    between atoms: _373  and  _374
REMARK  158  A    between atoms: _373  and  _376
REMARK  159  A    between atoms: _379  and  _381
REMARK  160  A    between atoms: _381  and  _382
REMARK  161  A    between atoms: _381  and  _384
REMARK  162  A    between atoms: _384  and  _385
REMARK  163  A    between atoms: _390  and  _391
REMARK  164  A    between atoms: _393  and  _395
REMARK  165  A    between atoms: _395  and  _396
REMARK  166  A    between atoms: _395  and  _398
REMARK  167  A    between atoms: _398  and  _399
REMARK  168  A    between atoms: _402  and  _404
REMARK  169  A    between atoms: _404  and  _405
REMARK  170  A    between atoms: _404  and  _407
REMARK  171  A    between atoms: _407  and  _408
REMARK  172  A    between atoms: _411  and  _413
REMARK  173  A    between atoms: _413  and  _414
REMARK  174  A    between atoms: _413  and  _416
REMARK  175  A    between atoms: _416  and  _417
REMARK  176  A    between atoms: _417  and  _418
REMARK  177  A    between atoms: _421  and  _423
REMARK  178  A    between atoms: _423  and  _424
REMARK  179  A    between atoms: _423  and  _426
REMARK  180  A    between atoms: _426  and  _427
REMARK  181  A    between atoms: _429  and  _431
REMARK  182  A    between atoms: _431  and  _432
REMARK  183  A    between atoms: _431  and  _434
REMARK  184  A    between atoms: _434  and  _435
REMARK  185  A    between atoms: _438  and  _440
REMARK  186  A    between atoms: _440  and  _441
REMARK  187  A    between atoms: _440  and  _443
REMARK  188  A    between atoms: _443  and  _444
REMARK  189  A    between atoms: _444  and  _445
REMARK  190  A    between atoms: _447  and  _449
REMARK  191  A    between atoms: _449  and  _450
REMARK  192  A    between atoms: _449  and  _452
REMARK  193  A    between atoms: _452  and  _453
REMARK  194  A    between atoms: _458  and  _460
REMARK  195  A    between atoms: _460  and  _461
REMARK  196  A    between atoms: _460  and  _463
REMARK  197  A    between atoms: _463  and  _464
REMARK  198  A    between atoms: _464  and  _465
REMARK  199  A    between atoms: _468  and  _470
REMARK  200  A    between atoms: _470  and  _471
REMARK  201  A    between atoms: _470  and  _473
REMARK  202  A    between atoms: _473  and  _474
REMARK  203  A    between atoms: _479  and  _480
REMARK  204  A    between atoms: _482  and  _484
REMARK  205  A    between atoms: _484  and  _485
REMARK  206  A    between atoms: _484  and  _487
REMARK  207  A    between atoms: _487  and  _488
REMARK  208  A    between atoms: _491  and  _493
REMARK  209  A    between atoms: _493  and  _494
REMARK  210  A    between atoms: _493  and  _496
REMARK  211  A    between atoms: _496  and  _497
REMARK  212  A    between atoms: _497  and  _498
REMARK  213  A    between atoms: _498  and  _499
REMARK  214  A    between atoms: _499  and  _500
REMARK  215  A    between atoms: _504  and  _506
REMARK  216  A    between atoms: _506  and  _507
REMARK  217  A    between atoms: _509  and  _511
REMARK  218  A    between atoms: _511  and  _512
REMARK  219  A    between atoms: _511  and  _514
REMARK  220  A    between atoms: _514  and  _515
REMARK  221  A    between atoms: _520  and  _521
REMARK  222  A    between atoms: _523  and  _525
REMARK  223  A    between atoms: _525  and  _526
REMARK  224  A    between atoms: _528  and  _530
REMARK  225  A    between atoms: _530  and  _531
REMARK  226  A    between atoms: _530  and  _533
REMARK  227  A    between atoms: _533  and  _534
REMARK  228  A    between atoms: _534  and  _535
REMARK  229  A    between atoms: _535  and  _536
REMARK  230  A    between atoms: _536  and  _537
REMARK  231  A    between atoms: _541  and  _543
REMARK  232  A    between atoms: _543  and  _544
REMARK  233  A    between atoms: _543  and  _546
REMARK  234  A    between atoms: _546  and  _547
REMARK                            x       y       z     vdW  Elec       q    Type
REMARK                         _______ _______ _______ _____ _____    ______ ____
ROOT
ATOM      1  C   THR A   1       3.869  31.490  25.936  0.00  0.00    +0.241 C 
ATOM      2  O   THR A   1       3.586  31.091  27.060  0.00  0.00    -0.274 OA
ATOM      3  N   ALA A   2       4.134  32.766  25.668  0.00  0.00    -0.298 N 
ATOM      4  H   ALA A   2       4.374  33.043  24.695  0.00  0.00    +0.150 HD
ENDROOT
BRANCH   3   5
ATOM      5  CA  ALA A   2       4.095  33.784  26.712  0.00  0.00    +0.137 C 
ATOM      6  CB  ALA A   2       4.409  35.160  26.123  0.00  0.00    +0.030 C 
BRANCH   5   7
ATOM      7  C   ALA A   2       2.716  33.800  27.370  0.00  0.00    +0.227 C 
ATOM      8  O   ALA A   2       2.577  34.197  28.526  0.00  0.00    -0.286 OA
ENDBRANCH   5   7
ENDBRANCH   3   5
BRANCH   1   9
ATOM      9  CA  THR A   1       3.921  30.519  24.764  0.00  0.00    +0.172 C 
BRANCH   9  10
ATOM     10  N   THR A   1       3.310  31.124  23.586  0.00  0.00    -0.236 NA
ATOM     11  H   THR A   1       3.907  31.410  22.784  0.00  0.00    +0.142 HD
ENDBRANCH   9  10
BRANCH   9  12
ATOM     12  CB  THR A   1       5.385  30.120  24.503  0.00  0.00    +0.135 C 
ATOM     13  CG2 THR A   1       5.462  28.994  23.482  0.00  0.00    +0.034 C 
BRANCH  12  14
ATOM     14  OG1 THR A   1       6.108  31.255  24.019  0.00  0.00    -0.383 OA
ATOM     15  HG1 THR A   1       7.049  30.998  23.851  0.00  0.00    +0.210 HD
ENDBRANCH  12  14
ENDBRANCH   9  12
ENDBRANCH   1   9
TORSDOF 6
REMARK  Name = ../refined-set-2016/2p2a/2p2a_pocket.pdb
REMARK  234 active torsions:
REMARK  status: ('A' for Active; 'I' for Inactive)
REMARK    1  A    between atoms: _1  and  _3
REMARK    2  A    between atoms: _3  and  _4
REMARK    3  A    between atoms: _3  and  _6
REMARK    4  A    between atoms: _6  and  _7
REMARK    5  A    between atoms: _10  and  _12
REMARK    6  A    between atoms: _12  and  _13
REMARK    7  A    between atoms: _12  and  _15
REMARK    8  A    between atoms: _15  and  _16
REMARK    9  A    between atoms: _19  and  _21
REMARK   10  A    between atoms: _21  and  _22
REMARK   11  A    between atoms: _21  and  _24
REMARK   12  A    between atoms: _24  and  _25
REMARK   13  A    between atoms: _25  and  _26
REMARK   14  A    between atoms: _29  and  _31
REMARK   15  A    between atoms: _31  and  _32
REMARK   16  A    between atoms: _31  and  _34
REMARK   17  A    between atoms: _34  and  _35
REMARK   18  A    between atoms: _38  and  _39
REMARK   19  A    between atoms: _44  and  _46
REMARK   20  A    between atoms: _46  and  _47
REMARK   21  A    between atoms: _46  and  _49
REMARK   22  A    between atoms: _49  and  _50
REMARK   23  A    between atoms: _55  and  _56
REMARK   24  A    between atoms: _58  and  _60
REMARK   25  A    between atoms: _60  and  _61
REMARK   26  A    between atoms: _60  and  _63
REMARK   27  A    between atoms: _66  and  _68
REMARK   28  A    between atoms: _68  and  _69
REMARK   29  A    between atoms: _68  and  _71
REMARK   30  A    between atoms: _71  and  _72
REMARK   31  A    between atoms: _72  and  _73
REMARK   32  A    between atoms: _73  and  _74
REMARK   33  A    between atoms: _74  and  _75
REMARK   34  A    between atoms: _79  and  _81
REMARK   35  A    between atoms: _81  and  _82
REMARK   36  A    between atoms: _81  and  _84
REMARK   37  A    between atoms: _84  and  _85
REMARK   38  A    between atoms: _90  and  _91
REMARK   39  A    between atoms: _93  and  _95
REMARK   40  A    between atoms: _95  and  _96
REMARK   41  A    between atoms: _98  and  _100
REMARK   42  A    between atoms: _100  and  _101
REMARK   43  A    between atoms: _104  and  _106
REMARK   44  A    between atoms: _106  and  _107
REMARK   45  A    between atoms: _106  and  _109
REMARK   46  A    between atoms: _109  and  _110
REMARK   47  A    between atoms: _110  and  _111
REMARK   48  A    between atoms: _113  and  _115
REMARK   49  A    between atoms: _115  and  _116
REMARK   50  A    between atoms: _115  and  _118
REMARK   51  A    between atoms: _121  and  _123
REMARK   52  A    between atoms: _123  and  _124
REMARK   53  A    between atoms: _128  and  _129
REMARK   54  A    between atoms: _134  and  _136
REMARK   55  A    between atoms: _136  and  _137
REMARK   56  A    between atoms: _136  and  _139
REMARK   57  A    between atoms: _139  and  _140
REMARK   58  A    between atoms: _143  and  _145
REMARK   59  A    between atoms: _145  and  _146
REMARK   60  A    between atoms: _145  and  _148
REMARK   61  A    between atoms: _148  and  _149
REMARK   62  A    between atoms: _152  and  _154
REMARK   63  A    between atoms: _154  and  _155
REMARK   64  A    between atoms: _154  and  _157
REMARK   65  A    between atoms: _157  and  _158
REMARK   66  A    between atoms: _161  and  _163
REMARK   67  A    between atoms: _163  and  _164
REMARK   68  A    between atoms: _163  and  _166
REMARK   69  A    between atoms: _166  and  _167
REMARK   70  A    between atoms: _170  and  _172
REMARK   71  A    between atoms: _172  and  _173
REMARK   72  A    between atoms: _172  and  _175
REMARK   73  A    between atoms: _175  and  _176
REMARK   74  A    between atoms: _176  and  _177
REMARK   75  A    between atoms: _177  and  _178
REMARK   76  A    between atoms: _187  and  _189
REMARK   77  A    between atoms: _189  and  _190
REMARK   78  A    between atoms: _189  and  _192
REMARK   79  A    between atoms: _192  and  _193
REMARK   80  A    between atoms: _199  and  _201
REMARK   81  A    between atoms: _201  and  _202
REMARK   82  A    between atoms: _201  and  _204
REMARK   83  A    between atoms: _204  and  _205
REMARK   84  A    between atoms: _205  and  _206
REMARK   85  A    between atoms: _208  and  _210
REMARK   86  A    between atoms: _210  and  _211
REMARK   87  A    between atoms: _210  and  _213
REMARK   88  A    between atoms: _213  and  _214
REMARK   89  A    between atoms: _217  and  _219
REMARK   90  A    between atoms: _219  and  _220
REMARK   91  A    between atoms: _222  and  _224
REMARK   92  A    between atoms: _224  and  _225
REMARK   93  A    between atoms: _224  and  _227
REMARK   94  A    between atoms: _227  and  _228
REMARK   95  A    between atoms: _231  and  _233
REMARK   96  A    between atoms: _233  and  _234
REMARK   97  A    between atoms: _233  and  _236
REMARK   98  A    between atoms: _236  and  _237
REMARK   99  A    between atoms: _239  and  _241
REMARK  100  A    between atoms: _241  and  _242
REMARK  101  A    between atoms: _244  and  _246
REMARK  102  A    between atoms: _246  and  _247
REMARK  103  A    between atoms: _246  and  _249
REMARK  104  A    between atoms: _249  and  _250
REMARK  105  A    between atoms: _253  and  _255
REMARK  106  A    between atoms: _255  and  _256
REMARK  107  A    between atoms: _255  and  _258
REMARK  108  A    between atoms: _258  and  _259
REMARK  109  A    between atoms: _262  and  _264
REMARK  110  A    between atoms: _264  and  _265
REMARK  111  A    between atoms: _264  and  _267
REMARK  112  A    between atoms: _267  and  _268
REMARK  113  A    between atoms: _271  and  _273
REMARK  114  A    between atoms: _273  and  _274
REMARK  115  A    between atoms: _273  and  _276
REMARK  116  A    between atoms: _276  and  _277
REMARK  117  A    between atoms: _279  and  _281
REMARK  118  A    between atoms: _281  and  _282
REMARK  119  A    between atoms: _284  and  _286
REMARK  120  A    between atoms: _286  and  _287
REMARK  121  A    between atoms: _286  and  _289
REMARK  122  A    between atoms: _289  and  _290
REMARK  123  A    between atoms: _292  and  _294
REMARK  124  A    between atoms: _294  and  _295
REMARK  125  A    between atoms: _294  and  _297
REMARK  126  A    between atoms: _297  and  _298
REMARK  127  A    between atoms: _301  and  _303
REMARK  128  A    between atoms: _303  and  _304
REMARK  129  A    between atoms: _303  and  _306
REMARK  130  A    between atoms: _306  and  _307
REMARK  131  A    between atoms: _307  and  _308
REMARK  132  A    between atoms: _308  and  _309
REMARK  133  A    between atoms: _309  and  _310
REMARK  134  A    between atoms: _314  and  _316
REMARK  135  A    between atoms: _316  and  _317
REMARK  136  A    between atoms: _316  and  _319
REMARK  137  A    between atoms: _319  and  _320
REMARK  138  A    between atoms: _320  and  _321
REMARK  139  A    between atoms: _324  and  _326
REMARK  140  A    between atoms: _326  and  _327
REMARK  141  A    between atoms: _326  and  _329
REMARK  142  A    between atoms: _329  and  _330
REMARK  143  A    between atoms: _336  and  _338
REMARK  144  A    between atoms: _338  and  _339
REMARK  145  A    between atoms: _338  and  _341
REMARK  146  A    between atoms: _341  and  _342
REMARK  147  A    between atoms: _348  and  _350
REMARK  148  A    between atoms: _350  and  _351
REMARK  149  A    between atoms: _350  and  _353
REMARK  150  A    between atoms: _356  and  _358
REMARK  151  A    between atoms: _358  and  _359
REMARK  152  A    between atoms: _358  and  _361
REMARK  153  A    between atoms: _361  and  _362
REMARK  154  A    between atoms: _365  and  _367
REMARK  155  A    between atoms: _367  and  _368
REMARK  156  A    between atoms: _371  and  _373
REMARK  157  A    between atoms: _373  and  _374
REMARK  158  A    between atoms: _373  and  _376
REMARK  159  A    between atoms: _379  and  _381
REMARK  160  A    between atoms: _381  and  _382
REMARK  161  A    between atoms: _381  and  _384
REMARK  162  A    between atoms: _384  and  _385
REMARK  163  A    between atoms: _390  and  _391
REMARK  164  A    between atoms: _393  and  _395
REMARK  165  A    between atoms: _395  and  _396
REMARK  166  A    between atoms: _395  and  _398
REMARK  167  A    between atoms: _398  and  _399
REMARK  168  A    between atoms: _402  and  _404
REMARK  169  A    between atoms: _404  and  _405
REMARK  170  A    between atoms: _404  and  _407
REMARK  171  A    between atoms: _407  and  _408
REMARK  172  A    between atoms: _411  and  _413
REMARK  173  A    between atoms: _413  and  _414
REMARK  174  A    between atoms: _413  and  _416
REMARK  175  A    between atoms: _416  and  _417
REMARK  176  A    between atoms: _417  and  _418
REMARK  177  A    between atoms: _421  and  _423
REMARK  178  A    between atoms: _423  and  _424
REMARK  179  A    between atoms: _423  and  _426
REMARK  180  A    between atoms: _426  and  _427
REMARK  181  A    between atoms: _429  and  _431
REMARK  182  A    between atoms: _431  and  _432
REMARK  183  A    between atoms: _431  and  _434
REMARK  184  A    between atoms: _434  and  _435
REMARK  185  A    between atoms: _438  and  _440
REMARK  186  A    between atoms: _440  and  _441
REMARK  187  A    between atoms: _440  and  _443
REMARK  188  A    between atoms: _443  and  _444
REMARK  189  A    between atoms: _444  and  _445
REMARK  190  A    between atoms: _447  and  _449
REMARK  191  A    between atoms: _449  and  _450
REMARK  192  A    between atoms: _449  and  _452
REMARK  193  A    between atoms: _452  and  _453
REMARK  194  A    between atoms: _458  and  _460
REMARK  195  A    between atoms: _460  and  _461
REMARK  196  A    between atoms: _460  and  _463
REMARK  197  A    between atoms: _463  and  _464
REMARK  198  A    between atoms: _464  and  _465
REMARK  199  A    between atoms: _468  and  _470
REMARK  200  A    between atoms: _470  and  _471
REMARK  201  A    between atoms: _470  and  _473
REMARK  202  A    between atoms: _473  and  _474
REMARK  203  A    between atoms: _479  and  _480
REMARK  204  A    between atoms: _482  and  _484
REMARK  205  A    between atoms: _484  and  _485
REMARK  206  A    between atoms: _484  and  _487
REMARK  207  A    between atoms: _487  and  _488
REMARK  208  A    between atoms: _491  and  _493
REMARK  209  A    between atoms: _493  and  _494
REMARK  210  A    between atoms: _493  and  _496
REMARK  211  A    between atoms: _496  and  _497
REMARK  212  A    between atoms: _497  and  _498
REMARK  213  A    between atoms: _498  and  _499
REMARK  214  A    between atoms: _499  and  _500
REMARK  215  A    between atoms: _504  and  _506
REMARK  216  A    between atoms: _506  and  _507
REMARK  217  A    between atoms: _509  and  _511
REMARK  218  A    between atoms: _511  and  _512
REMARK  219  A    between atoms: _511  and  _514
REMARK  220  A    between atoms: _514  and  _515
REMARK  221  A    between atoms: _520  and  _521
REMARK  222  A    between atoms: _523  and  _525
REMARK  223  A    between atoms: _525  and  _526
REMARK  224  A    between atoms: _528  and  _530
REMARK  225  A    between atoms: _530  and  _531
REMARK  226  A    between atoms: _530  and  _533
REMARK  227  A    between atoms: _533  and  _534
REMARK  228  A    between atoms: _534  and  _535
REMARK  229  A    between atoms: _535  and  _536
REMARK  230  A    between atoms: _536  and  _537
REMARK  231  A    between atoms: _541  and  _543
REMARK  232  A    between atoms: _543  and  _544
REMARK  233  A    between atoms: _543  and  _546
REMARK  234  A    between atoms: _546  and  _547
REMARK                            x       y       z     vdW  Elec       q    Type
REMARK                         _______ _______ _______ _____ _____    ______ ____
ROOT
ATOM      1  CA  VAL A   1       3.277  30.954  31.086  0.00  0.00    +0.133 C 
ENDROOT
BRANCH   1   2
ATOM      2  CB  VAL A   1       4.653  31.583  30.774  0.00  0.00    +0.023 C 
ATOM      3  CG2 VAL A   1       5.363  31.976  32.062  0.00  0.00    +0.002 C 
ATOM      4  CG1 VAL A   1       5.494  30.599  29.977  0.00  0.00    +0.002 C 
ENDBRANCH   1   2
BRANCH   1   5
ATOM      5  N   VAL A   1       2.544  30.676  29.859  0.00  0.00    -0.239 NA
ATOM      6  H   VAL A   1       2.926  31.013  28.952  0.00  0.00    +0.142 HD
ENDBRANCH   1   5
BRANCH   1   7
ATOM      7  C   VAL A   1       2.457  31.919  31.947  0.00  0.00    +0.224 C 
ATOM      8  O   VAL A   1       2.244  31.680  33.143  0.00  0.00    -0.287 OA
ENDBRANCH   1   7
TORSDOF 3
REMARK  Name = ../refined-set-2016/2p2a/2p2a_pocket.pdb
REMARK  234 active torsions:
REMARK  status: ('A' for Active; 'I' for Inactive)
REMARK    1  A    between atoms: _1  and  _3
REMARK    2  A    between atoms: _3  and  _4
REMARK    3  A    between atoms: _3  and  _6
REMARK    4  A    between atoms: _6  and  _7
REMARK    5  A    between atoms: _10  and  _12
REMARK    6  A    between atoms: _12  and  _13
REMARK    7  A    between atoms: _12  and  _15
REMARK    8  A    between atoms: _15  and  _16
REMARK    9  A    between atoms: _19  and  _21
REMARK   10  A    between atoms: _21  and  _22
REMARK   11  A    between atoms: _21  and  _24
REMARK   12  A    between atoms: _24  and  _25
REMARK   13  A    between atoms: _25  and  _26
REMARK   14  A    between atoms: _29  and  _31
REMARK   15  A    between atoms: _31  and  _32
REMARK   16  A    between atoms: _31  and  _34
REMARK   17  A    between atoms: _34  and  _35
REMARK   18  A    between atoms: _38  and  _39
REMARK   19  A    between atoms: _44  and  _46
REMARK   20  A    between atoms: _46  and  _47
REMARK   21  A    between atoms: _46  and  _49
REMARK   22  A    between atoms: _49  and  _50
REMARK   23  A    between atoms: _55  and  _56
REMARK   24  A    between atoms: _58  and  _60
REMARK   25  A    between atoms: _60  and  _61
REMARK   26  A    between atoms: _60  and  _63
REMARK   27  A    between atoms: _66  and  _68
REMARK   28  A    between atoms: _68  and  _69
REMARK   29  A    between atoms: _68  and  _71
REMARK   30  A    between atoms: _71  and  _72
REMARK   31  A    between atoms: _72  and  _73
REMARK   32  A    between atoms: _73  and  _74
REMARK   33  A    between atoms: _74  and  _75
REMARK   34  A    between atoms: _79  and  _81
REMARK   35  A    between atoms: _81  and  _82
REMARK   36  A    between atoms: _81  and  _84
REMARK   37  A    between atoms: _84  and  _85
REMARK   38  A    between atoms: _90  and  _91
REMARK   39  A    between atoms: _93  and  _95
REMARK   40  A    between atoms: _95  and  _96
REMARK   41  A    between atoms: _98  and  _100
REMARK   42  A    between atoms: _100  and  _101
REMARK   43  A    between atoms: _104  and  _106
REMARK   44  A    between atoms: _106  and  _107
REMARK   45  A    between atoms: _106  and  _109
REMARK   46  A    between atoms: _109  and  _110
REMARK   47  A    between atoms: _110  and  _111
REMARK   48  A    between atoms: _113  and  _115
REMARK   49  A    between atoms: _115  and  _116
REMARK   50  A    between atoms: _115  and  _118
REMARK   51  A    between atoms: _121  and  _123
REMARK   52  A    between atoms: _123  and  _124
REMARK   53  A    between atoms: _128  and  _129
REMARK   54  A    between atoms: _134  and  _136
REMARK   55  A    between atoms: _136  and  _137
REMARK   56  A    between atoms: _136  and  _139
REMARK   57  A    between atoms: _139  and  _140
REMARK   58  A    between atoms: _143  and  _145
REMARK   59  A    between atoms: _145  and  _146
REMARK   60  A    between atoms: _145  and  _148
REMARK   61  A    between atoms: _148  and  _149
REMARK   62  A    between atoms: _152  and  _154
REMARK   63  A    between atoms: _154  and  _155
REMARK   64  A    between atoms: _154  and  _157
REMARK   65  A    between atoms: _157  and  _158
REMARK   66  A    between atoms: _161  and  _163
REMARK   67  A    between atoms: _163  and  _164
REMARK   68  A    between atoms: _163  and  _166
REMARK   69  A    between atoms: _166  and  _167
REMARK   70  A    between atoms: _170  and  _172
REMARK   71  A    between atoms: _172  and  _173
REMARK   72  A    between atoms: _172  and  _175
REMARK   73  A    between atoms: _175  and  _176
REMARK   74  A    between atoms: _176  and  _177
REMARK   75  A    between atoms: _177  and  _178
REMARK   76  A    between atoms: _187  and  _189
REMARK   77  A    between atoms: _189  and  _190
REMARK   78  A    between atoms: _189  and  _192
REMARK   79  A    between atoms: _192  and  _193
REMARK   80  A    between atoms: _199  and  _201
REMARK   81  A    between atoms: _201  and  _202
REMARK   82  A    between atoms: _201  and  _204
REMARK   83  A    between atoms: _204  and  _205
REMARK   84  A    between atoms: _205  and  _206
REMARK   85  A    between atoms: _208  and  _210
REMARK   86  A    between atoms: _210  and  _211
REMARK   87  A    between atoms: _210  and  _213
REMARK   88  A    between atoms: _213  and  _214
REMARK   89  A    between atoms: _217  and  _219
REMARK   90  A    between atoms: _219  and  _220
REMARK   91  A    between atoms: _222  and  _224
REMARK   92  A    between atoms: _224  and  _225
REMARK   93  A    between atoms: _224  and  _227
REMARK   94  A    between atoms: _227  and  _228
REMARK   95  A    between atoms: _231  and  _233
REMARK   96  A    between atoms: _233  and  _234
REMARK   97  A    between atoms: _233  and  _236
REMARK   98  A    between atoms: _236  and  _237
REMARK   99  A    between atoms: _239  and  _241
REMARK  100  A    between atoms: _241  and  _242
REMARK  101  A    between atoms: _244  and  _246
REMARK  102  A    between atoms: _246  and  _247
REMARK  103  A    between atoms: _246  and  _249
REMARK  104  A    between atoms: _249  and  _250
REMARK  105  A    between atoms: _253  and  _255
REMARK  106  A    between atoms: _255  and  _256
REMARK  107  A    between atoms: _255  and  _258
REMARK  108  A    between atoms: _258  and  _259
REMARK  109  A    between atoms: _262  and  _264
REMARK  110  A    between atoms: _264  and  _265
REMARK  111  A    between atoms: _264  and  _267
REMARK  112  A    between atoms: _267  and  _268
REMARK  113  A    between atoms: _271  and  _273
REMARK  114  A    between atoms: _273  and  _274
REMARK  115  A    between atoms: _273  and  _276
REMARK  116  A    between atoms: _276  and  _277
REMARK  117  A    between atoms: _279  and  _281
REMARK  118  A    between atoms: _281  and  _282
REMARK  119  A    between atoms: _284  and  _286
REMARK  120  A    between atoms: _286  and  _287
REMARK  121  A    between atoms: _286  and  _289
REMARK  122  A    between atoms: _289  and  _290
REMARK  123  A    between atoms: _292  and  _294
REMARK  124  A    between atoms: _294  and  _295
REMARK  125  A    between atoms: _294  and  _297
REMARK  126  A    between atoms: _297  and  _298
REMARK  127  A    between atoms: _301  and  _303
REMARK  128  A    between atoms: _303  and  _304
REMARK  129  A    between atoms: _303  and  _306
REMARK  130  A    between atoms: _306  and  _307
REMARK  131  A    between atoms: _307  and  _308
REMARK  132  A    between atoms: _308  and  _309
REMARK  133  A    between atoms: _309  and  _310
REMARK  134  A    between atoms: _314  and  _316
REMARK  135  A    between atoms: _316  and  _317
REMARK  136  A    between atoms: _316  and  _319
REMARK  137  A    between atoms: _319  and  _320
REMARK  138  A    between atoms: _320  and  _321
REMARK  139  A    between atoms: _324  and  _326
REMARK  140  A    between atoms: _326  and  _327
REMARK  141  A    between atoms: _326  and  _329
REMARK  142  A    between atoms: _329  and  _330
REMARK  143  A    between atoms: _336  and  _338
REMARK  144  A    between atoms: _338  and  _339
REMARK  145  A    between atoms: _338  and  _341
REMARK  146  A    between atoms: _341  and  _342
REMARK  147  A    between atoms: _348  and  _350
REMARK  148  A    between atoms: _350  and  _351
REMARK  149  A    between atoms: _350  and  _353
REMARK  150  A    between atoms: _356  and  _358
REMARK  151  A    between atoms: _358  and  _359
REMARK  152  A    between atoms: _358  and  _361
REMARK  153  A    between atoms: _361  and  _362
REMARK  154  A    between atoms: _365  and  _367
REMARK  155  A    between atoms: _367  and  _368
REMARK  156  A    between atoms: _371  and  _373
REMARK  157  A    between atoms: _373  and  _374
REMARK  158  A    between atoms: _373  and  _376
REMARK  159  A    between atoms: _379  and  _381
REMARK  160  A    between atoms: _381  and  _382
REMARK  161  A    between atoms: _381  and  _384
REMARK  162  A    between atoms: _384  and  _385
REMARK  163  A    between atoms: _390  and  _391
REMARK  164  A    between atoms: _393  and  _395
REMARK  165  A    between atoms: _395  and  _396
REMARK  166  A    between atoms: _395  and  _398
REMARK  167  A    between atoms: _398  and  _399
REMARK  168  A    between atoms: _402  and  _404
REMARK  169  A    between atoms: _404  and  _405
REMARK  170  A    between atoms: _404  and  _407
REMARK  171  A    between atoms: _407  and  _408
REMARK  172  A    between atoms: _411  and  _413
REMARK  173  A    between atoms: _413  and  _414
REMARK  174  A    between atoms: _413  and  _416
REMARK  175  A    between atoms: _416  and  _417
REMARK  176  A    between atoms: _417  and  _418
REMARK  177  A    between atoms: _421  and  _423
REMARK  178  A    between atoms: _423  and  _424
REMARK  179  A    between atoms: _423  and  _426
REMARK  180  A    between atoms: _426  and  _427
REMARK  181  A    between atoms: _429  and  _431
REMARK  182  A    between atoms: _431  and  _432
REMARK  183  A    between atoms: _431  and  _434
REMARK  184  A    between atoms: _434  and  _435
REMARK  185  A    between atoms: _438  and  _440
REMARK  186  A    between atoms: _440  and  _441
REMARK  187  A    between atoms: _440  and  _443
REMARK  188  A    between atoms: _443  and  _444
REMARK  189  A    between atoms: _444  and  _445
REMARK  190  A    between atoms: _447  and  _449
REMARK  191  A    between atoms: _449  and  _450
REMARK  192  A    between atoms: _449  and  _452
REMARK  193  A    between atoms: _452  and  _453
REMARK  194  A    between atoms: _458  and  _460
REMARK  195  A    between atoms: _460  and  _461
REMARK  196  A    between atoms: _460  and  _463
REMARK  197  A    between atoms: _463  and  _464
REMARK  198  A    between atoms: _464  and  _465
REMARK  199  A    between atoms: _468  and  _470
REMARK  200  A    between atoms: _470  and  _471
REMARK  201  A    between atoms: _470  and  _473
REMARK  202  A    between atoms: _473  and  _474
REMARK  203  A    between atoms: _479  and  _480
REMARK  204  A    between atoms: _482  and  _484
REMARK  205  A    between atoms: _484  and  _485
REMARK  206  A    between atoms: _484  and  _487
REMARK  207  A    between atoms: _487  and  _488
REMARK  208  A    between atoms: _491  and  _493
REMARK  209  A    between atoms: _493  and  _494
REMARK  210  A    between atoms: _493  and  _496
REMARK  211  A    between atoms: _496  and  _497
REMARK  212  A    between atoms: _497  and  _498
REMARK  213  A    between atoms: _498  and  _499
REMARK  214  A    between atoms: _499  and  _500
REMARK  215  A    between atoms: _504  and  _506
REMARK  216  A    between atoms: _506  and  _507
REMARK  217  A    between atoms: _509  and  _511
REMARK  218  A    between atoms: _511  and  _512
REMARK  219  A    between atoms: _511  and  _514
REMARK  220  A    between atoms: _514  and  _515
REMARK  221  A    between atoms: _520  and  _521
REMARK  222  A    between atoms: _523  and  _525
REMARK  223  A    between atoms: _525  and  _526
REMARK  224  A    between atoms: _528  and  _530
REMARK  225  A    between atoms: _530  and  _531
REMARK  226  A    between atoms: _530  and  _533
REMARK  227  A    between atoms: _533  and  _534
REMARK  228  A    between atoms: _534  and  _535
REMARK  229  A    between atoms: _535  and  _536
REMARK  230  A    between atoms: _536  and  _537
REMARK  231  A    between atoms: _541  and  _543
REMARK  232  A    between atoms: _543  and  _544
REMARK  233  A    between atoms: _543  and  _546
REMARK  234  A    between atoms: _546  and  _547
REMARK                            x       y       z     vdW  Elec       q    Type
REMARK                         _______ _______ _______ _____ _____    ______ ____
ROOT
ATOM      1  CA  THR A   6      14.099  24.626  27.090  0.00  0.00    +0.176 C 
ENDROOT
BRANCH   1   2
ATOM      2  C   THR A   6      13.468  25.885  27.704  0.00  0.00    +0.243 C 
ATOM      3  O   THR A   6      14.149  26.660  28.387  0.00  0.00    -0.273 OA
ATOM      4  N   MET A   7      12.169  26.082  27.468  0.00  0.00    -0.297 N 
ATOM      5  H   MET A   7      11.646  25.395  26.888  0.00  0.00    +0.150 HD
BRANCH   4   6
ATOM      6  CA  MET A   7      11.467  27.245  28.009  0.00  0.00    +0.149 C 
BRANCH   6   7
ATOM      7  C   MET A   7      11.151  27.089  29.490  0.00  0.00    +0.241 C 
ATOM      8  O   MET A   7      11.206  28.057  30.247  0.00  0.00    -0.273 OA
ATOM      9  N   ASN A   8      10.809  25.874  29.900  0.00  0.00    -0.297 N 
ATOM     10  H   ASN A   8      10.769  25.093  29.214  0.00  0.00    +0.150 HD
BRANCH   9  11
ATOM     11  CA  ASN A   8      10.489  25.619  31.297  0.00  0.00    +0.158 C 
BRANCH  11  12
ATOM     12  C   ASN A   8      11.695  26.013  32.164  0.00  0.00    +0.241 C 
ATOM     13  O   ASN A   8      11.534  26.635  33.210  0.00  0.00    -0.273 OA
ATOM     14  N   GLU A   9      12.899  25.658  31.713  0.00  0.00    -0.297 N 
ATOM     15  H   GLU A   9      12.964  25.142  30.812  0.00  0.00    +0.150 HD
BRANCH  14  16
ATOM     16  CA  GLU A   9      14.136  25.968  32.440  0.00  0.00    +0.149 C 
BRANCH  16  17
ATOM     17  C   GLU A   9      14.434  27.469  32.440  0.00  0.00    +0.241 C 
ATOM     18  O   GLU A   9      14.836  28.036  33.458  0.00  0.00    -0.273 OA
ATOM     19  N   TYR A  10      14.241  28.104  31.289  0.00  0.00    -0.297 N 
ATOM     20  H   TYR A  10      13.911  27.563  30.464  0.00  0.00    +0.150 HD
BRANCH  19  21
ATOM     21  CA  TYR A  10      14.477  29.536  31.146  0.00  0.00    +0.153 C 
BRANCH  21  22
ATOM     22  C   TYR A  10      13.617  30.369  32.093  0.00  0.00    +0.241 C 
ATOM     23  O   TYR A  10      14.108  31.293  32.737  0.00  0.00    -0.273 OA
ATOM     24  N   ILE A  11      12.333  30.036  32.173  0.00  0.00    -0.298 N 
ATOM     25  H   ILE A  11      11.992  29.228  31.615  0.00  0.00    +0.150 HD
BRANCH  24  26
ATOM     26  CA  ILE A  11      11.380  30.760  33.014  0.00  0.00    +0.137 C 
BRANCH  26  27
ATOM     27  CB  ILE A  11       9.921  30.375  32.648  0.00  0.00    +0.026 C 
ATOM     28  CG2 ILE A  11       8.945  31.199  33.460  0.00  0.00    +0.002 C 
BRANCH  27  29
ATOM     29  CG1 ILE A  11       9.677  30.581  31.150  0.00  0.00    +0.002 C 
ATOM     30  CD1 ILE A  11       9.682  32.032  30.701  0.00  0.00    +0.000 C 
ENDBRANCH  27  29
ENDBRANCH  26  27
BRANCH  26  31
ATOM     31  C   ILE A  11      11.577  30.505  34.511  0.00  0.00    +0.227 C 
ATOM     32  O   ILE A  11      11.275  31.362  35.340  0.00  0.00    -0.286 OA
ENDBRANCH  26  31
ENDBRANCH  24  26
ENDBRANCH  21  22
BRANCH  21  33
ATOM     33  CB  TYR A  10      14.201  29.973  29.702  0.00  0.00    +0.055 C 
BRANCH  33  34
ATOM     34  CG  TYR A  10      14.454  31.444  29.459  0.00  0.00    -0.020 A 
ATOM     35  CD2 TYR A  10      15.745  31.964  29.522  0.00  0.00    -0.001 A 
ATOM     36  CE2 TYR A  10      15.991  33.319  29.307  0.00  0.00    +0.036 A 
ATOM     37  CZ  TYR A  10      14.939  34.171  29.025  0.00  0.00    +0.134 A 
ATOM     38  CE1 TYR A  10      13.640  33.680  28.957  0.00  0.00    +0.036 A 
ATOM     39  CD1 TYR A  10      13.404  32.320  29.174  0.00  0.00    -0.001 A 
BRANCH  37  40
ATOM     40  OH  TYR A  10      15.192  35.510  28.807  0.00  0.00    -0.506 OA
ATOM     41  HH  TYR A  10      16.163  35.680  28.895  0.00  0.00    +0.292 HD
ENDBRANCH  37  40
ENDBRANCH  33  34
ENDBRANCH  21  33
ENDBRANCH  19  21
ENDBRANCH  16  17
BRANCH  16  42
ATOM     42  CB  GLU A   9      15.320  25.235  31.807  0.00  0.00    +0.041 C 
BRANCH  42  43
ATOM     43  CG  GLU A   9      15.118  23.740  31.635  0.00  0.00    +0.116 C 
BRANCH  43  44
ATOM     44  CD  GLU A   9      16.269  23.076  30.890  0.00  0.00    +0.365 C 
ATOM     45  OE2 GLU A   9      16.795  22.058  31.392  0.00  0.00    -0.246 OA
ATOM     46  OE1 GLU A   9      16.641  23.571  29.800  0.00  0.00    -0.246 OA
ENDBRANCH  43  44
ENDBRANCH  42  43
ENDBRANCH  16  42
ENDBRANCH  14  16
ENDBRANCH  11  12
BRANCH  11  47
ATOM     47  CB  ASN A   8      10.159  24.138  31.496  0.00  0.00    +0.114 C 
BRANCH  47  48
ATOM     48  CG  ASN A   8       9.132  23.909  32.595  0.00  0.00    +0.222 C 
ATOM     49  OD1 ASN A   8       8.943  24.752  33.474  0.00  0.00    -0.275 OA
ATOM     50  ND2 ASN A   8       8.471  22.757  32.554  0.00  0.00    -0.329 N 
ATOM     51 HD21 ASN A   8       7.762  22.538  33.283  0.00  0.00    +0.145 HD
ATOM     52 HD22 ASN A   8       8.663  22.074  31.793  0.00  0.00    +0.145 HD
ENDBRANCH  47  48
ENDBRANCH  11  47
ENDBRANCH   9  11
ENDBRANCH   6   7
BRANCH   6  53
ATOM     53  CB  MET A   7      10.161  27.511  27.248  0.00  0.00    +0.041 C 
BRANCH  53  54
ATOM     54  CG  MET A   7       9.411  28.725  27.786  0.00  0.00    +0.060 C 
BRANCH  54  55
ATOM     55  SD  MET A   7       7.905  29.123  26.901  0.00  0.00    -0.139 S 
ATOM     56  CE  MET A   7       8.537  30.242  25.673  0.00  0.00    +0.069 C 
ENDBRANCH  54  55
ENDBRANCH  53  54
ENDBRANCH   6  53
ENDBRANCH   4   6
ENDBRANCH   1   2
BRANCH   1  59
ATOM     57  C   SER A   5      12.891  23.100  28.549  0.00  0.00    +0.243 C 
ATOM     58  O   SER A   5      13.129  23.770  29.547  0.00  0.00    -0.273 OA
ATOM     59  N   THR A   6      13.315  23.428  27.338  0.00  0.00    -0.295 N 
ATOM     60  H   THR A   6      13.079  22.807  26.538  0.00  0.00    +0.150 HD
BRANCH  57  61
ATOM     61  CA  SER A   5      12.078  21.824  28.646  0.00  0.00    +0.178 C 
BRANCH  61  63
ATOM     62  C   GLU A   4      10.373  22.613  27.048  0.00  0.00    +0.241 C 
ATOM     63  N   SER A   5      11.112  21.636  27.562  0.00  0.00    -0.295 N 
ATOM     64  H   SER A   5      10.997  20.679  27.171  0.00  0.00    +0.150 HD
ATOM     65  O   GLU A   4      10.442  23.784  27.424  0.00  0.00    -0.273 OA
BRANCH  62  66
ATOM     66  CA  GLU A   4       9.390  22.181  25.951  0.00  0.00    +0.149 C 
BRANCH  66  69
ATOM     67  C   LEU A   3       7.211  22.337  27.003  0.00  0.00    +0.241 C 
ATOM     68  O   LEU A   3       7.464  21.401  27.765  0.00  0.00    -0.273 OA
ATOM     69  N   GLU A   4       8.078  22.791  26.109  0.00  0.00    -0.297 N 
ATOM     70  H   GLU A   4       7.816  23.599  25.509  0.00  0.00    +0.150 HD
BRANCH  67  71
ATOM     71  CA  LEU A   3       5.865  23.049  27.062  0.00  0.00    +0.149 C 
BRANCH  71  73
ATOM     72  C   LEU A   2       3.673  22.286  27.816  0.00  0.00    +0.241 C 
ATOM     73  N   LEU A   3       4.981  22.395  28.020  0.00  0.00    -0.297 N 
ATOM     74  H   LEU A   3       5.388  22.001  28.892  0.00  0.00    +0.150 HD
ATOM     75  O   LEU A   2       3.112  22.723  26.817  0.00  0.00    -0.273 OA
BRANCH  72  76
ATOM     76  CA  LEU A   2       2.878  21.586  28.905  0.00  0.00    +0.149 C 
BRANCH  76  79
ATOM     77  C   TYR A   1       2.357  23.124  30.725  0.00  0.00    +0.239 C 
ATOM     78  O   TYR A   1       3.395  22.834  31.319  0.00  0.00    -0.274 OA
ATOM     79  N   LEU A   2       2.014  22.561  29.570  0.00  0.00    -0.297 N 
ATOM     80  H   LEU A   2       1.109  22.820  29.129  0.00  0.00    +0.150 HD
BRANCH  77  81
ATOM     81  CA  TYR A   1       1.368  24.148  31.296  0.00  0.00    +0.149 C 
BRANCH  81  82
ATOM     82  N   TYR A   1       1.056  23.980  32.705  0.00  0.00    -0.238 NA
ATOM     83  H   TYR A   1       1.796  24.129  33.420  0.00  0.00    +0.142 HD
ENDBRANCH  81  82
BRANCH  81  84
ATOM     84  CB  TYR A   1       1.871  25.580  31.089  0.00  0.00    +0.053 C 
BRANCH  84  85
ATOM     85  CG  TYR A   1       2.083  25.991  29.653  0.00  0.00    -0.020 A 
ATOM     86  CD2 TYR A   1       3.234  26.685  29.277  0.00  0.00    -0.001 A 
ATOM     87  CE2 TYR A   1       3.437  27.093  27.963  0.00  0.00    +0.036 A 
ATOM     88  CZ  TYR A   1       2.481  26.804  27.007  0.00  0.00    +0.134 A 
ATOM     89  CE1 TYR A   1       1.325  26.116  27.350  0.00  0.00    +0.036 A 
ATOM     90  CD1 TYR A   1       1.130  25.713  28.671  0.00  0.00    -0.001 A 
BRANCH  88  91
ATOM     91  OH  TYR A   1       2.695  27.198  25.708  0.00  0.00    -0.506 OA
ATOM     92  HH  TYR A   1       1.927  26.920  25.149  0.00  0.00    +0.292 HD
ENDBRANCH  88  91
ENDBRANCH  84  85
ENDBRANCH  81  84
ENDBRANCH  77  81
ENDBRANCH  76  79
BRANCH  76  93
ATOM     93  CB  LEU A   2       2.044  20.462  28.286  0.00  0.00    +0.029 C 
BRANCH  93  94
ATOM     94  CG  LEU A   2       1.422  19.484  29.280  0.00  0.00    +0.002 C 
ATOM     95  CD2 LEU A   2       2.493  18.516  29.733  0.00  0.00    +0.000 C 
ATOM     96  CD1 LEU A   2       0.248  18.754  28.656  0.00  0.00    +0.000 C 
ENDBRANCH  93  94
ENDBRANCH  76  93
ENDBRANCH  72  76
ENDBRANCH  71  73
BRANCH  71  97
ATOM     97  CB  LEU A   3       6.079  24.520  27.443  0.00  0.00    +0.029 C 
BRANCH  97  98
ATOM     98  CG  LEU A   3       6.293  24.893  28.917  0.00  0.00    +0.002 C 
ATOM     99  CD2 LEU A   3       7.195  23.885  29.619  0.00  0.00    +0.000 C 
ATOM    100  CD1 LEU A   3       6.885  26.297  28.995  0.00  0.00    +0.000 C 
ENDBRANCH  97  98
ENDBRANCH  71  97
ENDBRANCH  67  71
ENDBRANCH  66  69
BRANCH  66 101
ATOM    101  CB  GLU A   4       9.909  22.494  24.547  0.00  0.00    +0.041 C 
BRANCH 101 102
ATOM    102  CG  GLU A   4       8.892  22.072  23.477  0.00  0.00    +0.116 C 
BRANCH 102 103
ATOM    103  CD  GLU A   4       9.360  22.300  22.052  0.00  0.00    +0.365 C 
ATOM    104  OE2 GLU A   4       9.820  23.417  21.743  0.00  0.00    -0.246 OA
ATOM    105  OE1 GLU A   4       9.249  21.360  21.237  0.00  0.00    -0.246 OA
ENDBRANCH 102 103
ENDBRANCH 101 102
ENDBRANCH  66 101
ENDBRANCH  62  66
ENDBRANCH  61  63
BRANCH  61 106
ATOM    106  CB  SER A   5      13.015  20.607  28.718  0.00  0.00    +0.166 C 
BRANCH 106 107
ATOM    107  OG  SER A   5      13.589  20.355  27.452  0.00  0.00    -0.380 OA
ATOM    108  H   SER A   5      12.871  20.172  26.796  0.00  0.00    +0.211 HD
ENDBRANCH 106 107
ENDBRANCH  61 106
ENDBRANCH  57  61
ENDBRANCH   1  59
BRANCH   1 109
ATOM    109  CB  THR A   6      14.277  24.819  25.579  0.00  0.00    +0.137 C 
ATOM    110  CG2 THR A   6      15.233  23.771  25.017  0.00  0.00    +0.034 C 
BRANCH 109 111
ATOM    111  OG1 THR A   6      13.004  24.679  24.936  0.00  0.00    -0.382 OA
ATOM    112  HG1 THR A   6      13.113  24.803  23.960  0.00  0.00    +0.210 HD
ENDBRANCH 109 111
ENDBRANCH   1 109
TORSDOF 49
REMARK  Name = ../refined-set-2016/2p2a/2p2a_pocket.pdb
REMARK  234 active torsions:
REMARK  status: ('A' for Active; 'I' for Inactive)
REMARK    1  A    between atoms: _1  and  _3
REMARK    2  A    between atoms: _3  and  _4
REMARK    3  A    between atoms: _3  and  _6
REMARK    4  A    between atoms: _6  and  _7
REMARK    5  A    between atoms: _10  and  _12
REMARK    6  A    between atoms: _12  and  _13
REMARK    7  A    between atoms: _12  and  _15
REMARK    8  A    between atoms: _15  and  _16
REMARK    9  A    between atoms: _19  and  _21
REMARK   10  A    between atoms: _21  and  _22
REMARK   11  A    between atoms: _21  and  _24
REMARK   12  A    between atoms: _24  and  _25
REMARK   13  A    between atoms: _25  and  _26
REMARK   14  A    between atoms: _29  and  _31
REMARK   15  A    between atoms: _31  and  _32
REMARK   16  A    between atoms: _31  and  _34
REMARK   17  A    between atoms: _34  and  _35
REMARK   18  A    between atoms: _38  and  _39
REMARK   19  A    between atoms: _44  and  _46
REMARK   20  A    between atoms: _46  and  _47
REMARK   21  A    between atoms: _46  and  _49
REMARK   22  A    between atoms: _49  and  _50
REMARK   23  A    between atoms: _55  and  _56
REMARK   24  A    between atoms: _58  and  _60
REMARK   25  A    between atoms: _60  and  _61
REMARK   26  A    between atoms: _60  and  _63
REMARK   27  A    between atoms: _66  and  _68
REMARK   28  A    between atoms: _68  and  _69
REMARK   29  A    between atoms: _68  and  _71
REMARK   30  A    between atoms: _71  and  _72
REMARK   31  A    between atoms: _72  and  _73
REMARK   32  A    between atoms: _73  and  _74
REMARK   33  A    between atoms: _74  and  _75
REMARK   34  A    between atoms: _79  and  _81
REMARK   35  A    between atoms: _81  and  _82
REMARK   36  A    between atoms: _81  and  _84
REMARK   37  A    between atoms: _84  and  _85
REMARK   38  A    between atoms: _90  and  _91
REMARK   39  A    between atoms: _93  and  _95
REMARK   40  A    between atoms: _95  and  _96
REMARK   41  A    between atoms: _98  and  _100
REMARK   42  A    between atoms: _100  and  _101
REMARK   43  A    between atoms: _104  and  _106
REMARK   44  A    between atoms: _106  and  _107
REMARK   45  A    between atoms: _106  and  _109
REMARK   46  A    between atoms: _109  and  _110
REMARK   47  A    between atoms: _110  and  _111
REMARK   48  A    between atoms: _113  and  _115
REMARK   49  A    between atoms: _115  and  _116
REMARK   50  A    between atoms: _115  and  _118
REMARK   51  A    between atoms: _121  and  _123
REMARK   52  A    between atoms: _123  and  _124
REMARK   53  A    between atoms: _128  and  _129
REMARK   54  A    between atoms: _134  and  _136
REMARK   55  A    between atoms: _136  and  _137
REMARK   56  A    between atoms: _136  and  _139
REMARK   57  A    between atoms: _139  and  _140
REMARK   58  A    between atoms: _143  and  _145
REMARK   59  A    between atoms: _145  and  _146
REMARK   60  A    between atoms: _145  and  _148
REMARK   61  A    between atoms: _148  and  _149
REMARK   62  A    between atoms: _152  and  _154
REMARK   63  A    between atoms: _154  and  _155
REMARK   64  A    between atoms: _154  and  _157
REMARK   65  A    between atoms: _157  and  _158
REMARK   66  A    between atoms: _161  and  _163
REMARK   67  A    between atoms: _163  and  _164
REMARK   68  A    between atoms: _163  and  _166
REMARK   69  A    between atoms: _166  and  _167
REMARK   70  A    between atoms: _170  and  _172
REMARK   71  A    between atoms: _172  and  _173
REMARK   72  A    between atoms: _172  and  _175
REMARK   73  A    between atoms: _175  and  _176
REMARK   74  A    between atoms: _176  and  _177
REMARK   75  A    between atoms: _177  and  _178
REMARK   76  A    between atoms: _187  and  _189
REMARK   77  A    between atoms: _189  and  _190
REMARK   78  A    between atoms: _189  and  _192
REMARK   79  A    between atoms: _192  and  _193
REMARK   80  A    between atoms: _199  and  _201
REMARK   81  A    between atoms: _201  and  _202
REMARK   82  A    between atoms: _201  and  _204
REMARK   83  A    between atoms: _204  and  _205
REMARK   84  A    between atoms: _205  and  _206
REMARK   85  A    between atoms: _208  and  _210
REMARK   86  A    between atoms: _210  and  _211
REMARK   87  A    between atoms: _210  and  _213
REMARK   88  A    between atoms: _213  and  _214
REMARK   89  A    between atoms: _217  and  _219
REMARK   90  A    between atoms: _219  and  _220
REMARK   91  A    between atoms: _222  and  _224
REMARK   92  A    between atoms: _224  and  _225
REMARK   93  A    between atoms: _224  and  _227
REMARK   94  A    between atoms: _227  and  _228
REMARK   95  A    between atoms: _231  and  _233
REMARK   96  A    between atoms: _233  and  _234
REMARK   97  A    between atoms: _233  and  _236
REMARK   98  A    between atoms: _236  and  _237
REMARK   99  A    between atoms: _239  and  _241
REMARK  100  A    between atoms: _241  and  _242
REMARK  101  A    between atoms: _244  and  _246
REMARK  102  A    between atoms: _246  and  _247
REMARK  103  A    between atoms: _246  and  _249
REMARK  104  A    between atoms: _249  and  _250
REMARK  105  A    between atoms: _253  and  _255
REMARK  106  A    between atoms: _255  and  _256
REMARK  107  A    between atoms: _255  and  _258
REMARK  108  A    between atoms: _258  and  _259
REMARK  109  A    between atoms: _262  and  _264
REMARK  110  A    between atoms: _264  and  _265
REMARK  111  A    between atoms: _264  and  _267
REMARK  112  A    between atoms: _267  and  _268
REMARK  113  A    between atoms: _271  and  _273
REMARK  114  A    between atoms: _273  and  _274
REMARK  115  A    between atoms: _273  and  _276
REMARK  116  A    between atoms: _276  and  _277
REMARK  117  A    between atoms: _279  and  _281
REMARK  118  A    between atoms: _281  and  _282
REMARK  119  A    between atoms: _284  and  _286
REMARK  120  A    between atoms: _286  and  _287
REMARK  121  A    between atoms: _286  and  _289
REMARK  122  A    between atoms: _289  and  _290
REMARK  123  A    between atoms: _292  and  _294
REMARK  124  A    between atoms: _294  and  _295
REMARK  125  A    between atoms: _294  and  _297
REMARK  126  A    between atoms: _297  and  _298
REMARK  127  A    between atoms: _301  and  _303
REMARK  128  A    between atoms: _303  and  _304
REMARK  129  A    between atoms: _303  and  _306
REMARK  130  A    between atoms: _306  and  _307
REMARK  131  A    between atoms: _307  and  _308
REMARK  132  A    between atoms: _308  and  _309
REMARK  133  A    between atoms: _309  and  _310
REMARK  134  A    between atoms: _314  and  _316
REMARK  135  A    between atoms: _316  and  _317
REMARK  136  A    between atoms: _316  and  _319
REMARK  137  A    between atoms: _319  and  _320
REMARK  138  A    between atoms: _320  and  _321
REMARK  139  A    between atoms: _324  and  _326
REMARK  140  A    between atoms: _326  and  _327
REMARK  141  A    between atoms: _326  and  _329
REMARK  142  A    between atoms: _329  and  _330
REMARK  143  A    between atoms: _336  and  _338
REMARK  144  A    between atoms: _338  and  _339
REMARK  145  A    between atoms: _338  and  _341
REMARK  146  A    between atoms: _341  and  _342
REMARK  147  A    between atoms: _348  and  _350
REMARK  148  A    between atoms: _350  and  _351
REMARK  149  A    between atoms: _350  and  _353
REMARK  150  A    between atoms: _356  and  _358
REMARK  151  A    between atoms: _358  and  _359
REMARK  152  A    between atoms: _358  and  _361
REMARK  153  A    between atoms: _361  and  _362
REMARK  154  A    between atoms: _365  and  _367
REMARK  155  A    between atoms: _367  and  _368
REMARK  156  A    between atoms: _371  and  _373
REMARK  157  A    between atoms: _373  and  _374
REMARK  158  A    between atoms: _373  and  _376
REMARK  159  A    between atoms: _379  and  _381
REMARK  160  A    between atoms: _381  and  _382
REMARK  161  A    between atoms: _381  and  _384
REMARK  162  A    between atoms: _384  and  _385
REMARK  163  A    between atoms: _390  and  _391
REMARK  164  A    between atoms: _393  and  _395
REMARK  165  A    between atoms: _395  and  _396
REMARK  166  A    between atoms: _395  and  _398
REMARK  167  A    between atoms: _398  and  _399
REMARK  168  A    between atoms: _402  and  _404
REMARK  169  A    between atoms: _404  and  _405
REMARK  170  A    between atoms: _404  and  _407
REMARK  171  A    between atoms: _407  and  _408
REMARK  172  A    between atoms: _411  and  _413
REMARK  173  A    between atoms: _413  and  _414
REMARK  174  A    between atoms: _413  and  _416
REMARK  175  A    between atoms: _416  and  _417
REMARK  176  A    between atoms: _417  and  _418
REMARK  177  A    between atoms: _421  and  _423
REMARK  178  A    between atoms: _423  and  _424
REMARK  179  A    between atoms: _423  and  _426
REMARK  180  A    between atoms: _426  and  _427
REMARK  181  A    between atoms: _429  and  _431
REMARK  182  A    between atoms: _431  and  _432
REMARK  183  A    between atoms: _431  and  _434
REMARK  184  A    between atoms: _434  and  _435
REMARK  185  A    between atoms: _438  and  _440
REMARK  186  A    between atoms: _440  and  _441
REMARK  187  A    between atoms: _440  and  _443
REMARK  188  A    between atoms: _443  and  _444
REMARK  189  A    between atoms: _444  and  _445
REMARK  190  A    between atoms: _447  and  _449
REMARK  191  A    between atoms: _449  and  _450
REMARK  192  A    between atoms: _449  and  _452
REMARK  193  A    between atoms: _452  and  _453
REMARK  194  A    between atoms: _458  and  _460
REMARK  195  A    between atoms: _460  and  _461
REMARK  196  A    between atoms: _460  and  _463
REMARK  197  A    between atoms: _463  and  _464
REMARK  198  A    between atoms: _464  and  _465
REMARK  199  A    between atoms: _468  and  _470
REMARK  200  A    between atoms: _470  and  _471
REMARK  201  A    between atoms: _470  and  _473
REMARK  202  A    between atoms: _473  and  _474
REMARK  203  A    between atoms: _479  and  _480
REMARK  204  A    between atoms: _482  and  _484
REMARK  205  A    between atoms: _484  and  _485
REMARK  206  A    between atoms: _484  and  _487
REMARK  207  A    between atoms: _487  and  _488
REMARK  208  A    between atoms: _491  and  _493
REMARK  209  A    between atoms: _493  and  _494
REMARK  210  A    between atoms: _493  and  _496
REMARK  211  A    between atoms: _496  and  _497
REMARK  212  A    between atoms: _497  and  _498
REMARK  213  A    between atoms: _498  and  _499
REMARK  214  A    between atoms: _499  and  _500
REMARK  215  A    between atoms: _504  and  _506
REMARK  216  A    between atoms: _506  and  _507
REMARK  217  A    between atoms: _509  and  _511
REMARK  218  A    between atoms: _511  and  _512
REMARK  219  A    between atoms: _511  and  _514
REMARK  220  A    between atoms: _514  and  _515
REMARK  221  A    between atoms: _520  and  _521
REMARK  222  A    between atoms: _523  and  _525
REMARK  223  A    between atoms: _525  and  _526
REMARK  224  A    between atoms: _528  and  _530
REMARK  225  A    between atoms: _530  and  _531
REMARK  226  A    between atoms: _530  and  _533
REMARK  227  A    between atoms: _533  and  _534
REMARK  228  A    between atoms: _534  and  _535
REMARK  229  A    between atoms: _535  and  _536
REMARK  230  A    between atoms: _536  and  _537
REMARK  231  A    between atoms: _541  and  _543
REMARK  232  A    between atoms: _543  and  _544
REMARK  233  A    between atoms: _543  and  _546
REMARK  234  A    between atoms: _546  and  _547
REMARK                            x       y       z     vdW  Elec       q    Type
REMARK                         _______ _______ _______ _____ _____    ______ ____
ROOT
ATOM      1  C   GLY A   2      15.009  19.599  18.061  0.00  0.00    +0.243 C 
ATOM      2  N   TYR A   3      15.714  20.729  18.067  0.00  0.00    -0.297 N 
ATOM      3  H   TYR A   3      16.519  20.818  18.720  0.00  0.00    +0.150 HD
ATOM      4  O   GLY A   2      14.001  19.430  17.359  0.00  0.00    -0.273 OA
ENDROOT
BRANCH   2   5
ATOM      5  CA  TYR A   3      15.390  21.847  17.183  0.00  0.00    +0.153 C 
BRANCH   5   6
ATOM      6  C   TYR A   3      16.358  21.800  16.012  0.00  0.00    +0.241 C 
ATOM      7  O   TYR A   3      17.547  21.556  16.195  0.00  0.00    -0.273 OA
ATOM      8  N   GLY A   4      15.854  22.050  14.812  0.00  0.00    -0.296 N 
ATOM      9  H   GLY A   4      14.839  22.251  14.706  0.00  0.00    +0.150 HD
BRANCH   8  10
ATOM     10  CA  GLY A   4      16.716  22.043  13.648  0.00  0.00    +0.163 C 
BRANCH  10  11
ATOM     11  C   GLY A   4      16.505  23.280  12.801  0.00  0.00    +0.229 C 
ATOM     12  O   GLY A   4      15.466  23.928  12.893  0.00  0.00    -0.286 OA
ENDBRANCH  10  11
ENDBRANCH   8  10
ENDBRANCH   5   6
BRANCH   5  13
ATOM     13  CB  TYR A   3      15.582  23.204  17.870  0.00  0.00    +0.055 C 
BRANCH  13  14
ATOM     14  CG  TYR A   3      14.695  23.485  19.050  0.00  0.00    -0.020 A 
ATOM     15  CD2 TYR A   3      15.176  24.202  20.147  0.00  0.00    -0.001 A 
ATOM     16  CE2 TYR A   3      14.348  24.520  21.211  0.00  0.00    +0.036 A 
ATOM     17  CZ  TYR A   3      13.023  24.111  21.184  0.00  0.00    +0.134 A 
ATOM     18  CE1 TYR A   3      12.527  23.399  20.115  0.00  0.00    +0.036 A 
ATOM     19  CD1 TYR A   3      13.360  23.090  19.054  0.00  0.00    -0.001 A 
BRANCH  17  20
ATOM     20  OH  TYR A   3      12.193  24.408  22.231  0.00  0.00    -0.506 OA
ATOM     21  HH  TYR A   3      11.291  24.044  22.049  0.00  0.00    +0.292 HD
ENDBRANCH  17  20
ENDBRANCH  13  14
ENDBRANCH   5  13
ENDBRANCH   2   5
BRANCH   1  22
ATOM     22  CA  GLY A   2      15.490  18.506  18.999  0.00  0.00    +0.176 C 
BRANCH  22  25
ATOM     23  C   LYS A   1      14.591  16.668  20.279  0.00  0.00    +0.238 C 
ATOM     24  O   LYS A   1      15.408  16.850  21.190  0.00  0.00    -0.274 OA
ATOM     25  N   GLY A   2      14.550  17.415  19.179  0.00  0.00    -0.296 N 
ATOM     26  H   GLY A   2      13.841  17.216  18.445  0.00  0.00    +0.150 HD
BRANCH  23  27
ATOM     27  CA  LYS A   1      13.558  15.555  20.372  0.00  0.00    +0.145 C 
BRANCH  27  28
ATOM     28  N   LYS A   1      13.531  15.013  21.721  0.00  0.00    -0.238 NA
ATOM     29  H   LYS A   1      13.602  15.665  22.528  0.00  0.00    +0.142 HD
ENDBRANCH  27  28
BRANCH  27  30
ATOM     30  CB  LYS A   1      12.169  16.100  20.011  0.00  0.00    +0.026 C 
BRANCH  30  31
ATOM     31  CG  LYS A   1      11.652  17.131  20.996  0.00  0.00    -0.000 C 
BRANCH  31  32
ATOM     32  CD  LYS A   1      10.225  17.593  20.696  0.00  0.00    -0.024 C 
BRANCH  32  33
ATOM     33  CE  LYS A   1       9.234  16.440  20.737  0.00  0.00    -0.086 C 
BRANCH  33  34
ATOM     34  NZ  LYS A   1       7.826  16.906  20.906  0.00  0.00    +0.380 N 
ATOM     35  HZ1 LYS A   1       7.742  17.435  21.798  0.00  0.00    -0.089 HD
ATOM     36  HZ2 LYS A   1       7.190  16.083  20.928  0.00  0.00    -0.089 HD
ATOM     37  HZ3 LYS A   1       7.569  17.524  20.110  0.00  0.00    -0.089 HD
ENDBRANCH  33  34
ENDBRANCH  32  33
ENDBRANCH  31  32
ENDBRANCH  30  31
ENDBRANCH  27  30
ENDBRANCH  23  27
ENDBRANCH  22  25
ENDBRANCH   1  22
TORSDOF 16
REMARK  Name = ../refined-set-2016/2p2a/2p2a_pocket.pdb
REMARK  234 active torsions:
REMARK  status: ('A' for Active; 'I' for Inactive)
REMARK    1  A    between atoms: _1  and  _3
REMARK    2  A    between atoms: _3  and  _4
REMARK    3  A    between atoms: _3  and  _6
REMARK    4  A    between atoms: _6  and  _7
REMARK    5  A    between atoms: _10  and  _12
REMARK    6  A    between atoms: _12  and  _13
REMARK    7  A    between atoms: _12  and  _15
REMARK    8  A    between atoms: _15  and  _16
REMARK    9  A    between atoms: _19  and  _21
REMARK   10  A    between atoms: _21  and  _22
REMARK   11  A    between atoms: _21  and  _24
REMARK   12  A    between atoms: _24  and  _25
REMARK   13  A    between atoms: _25  and  _26
REMARK   14  A    between atoms: _29  and  _31
REMARK   15  A    between atoms: _31  and  _32
REMARK   16  A    between atoms: _31  and  _34
REMARK   17  A    between atoms: _34  and  _35
REMARK   18  A    between atoms: _38  and  _39
REMARK   19  A    between atoms: _44  and  _46
REMARK   20  A    between atoms: _46  and  _47
REMARK   21  A    between atoms: _46  and  _49
REMARK   22  A    between atoms: _49  and  _50
REMARK   23  A    between atoms: _55  and  _56
REMARK   24  A    between atoms: _58  and  _60
REMARK   25  A    between atoms: _60  and  _61
REMARK   26  A    between atoms: _60  and  _63
REMARK   27  A    between atoms: _66  and  _68
REMARK   28  A    between atoms: _68  and  _69
REMARK   29  A    between atoms: _68  and  _71
REMARK   30  A    between atoms: _71  and  _72
REMARK   31  A    between atoms: _72  and  _73
REMARK   32  A    between atoms: _73  and  _74
REMARK   33  A    between atoms: _74  and  _75
REMARK   34  A    between atoms: _79  and  _81
REMARK   35  A    between atoms: _81  and  _82
REMARK   36  A    between atoms: _81  and  _84
REMARK   37  A    between atoms: _84  and  _85
REMARK   38  A    between atoms: _90  and  _91
REMARK   39  A    between atoms: _93  and  _95
REMARK   40  A    between atoms: _95  and  _96
REMARK   41  A    between atoms: _98  and  _100
REMARK   42  A    between atoms: _100  and  _101
REMARK   43  A    between atoms: _104  and  _106
REMARK   44  A    between atoms: _106  and  _107
REMARK   45  A    between atoms: _106  and  _109
REMARK   46  A    between atoms: _109  and  _110
REMARK   47  A    between atoms: _110  and  _111
REMARK   48  A    between atoms: _113  and  _115
REMARK   49  A    between atoms: _115  and  _116
REMARK   50  A    between atoms: _115  and  _118
REMARK   51  A    between atoms: _121  and  _123
REMARK   52  A    between atoms: _123  and  _124
REMARK   53  A    between atoms: _128  and  _129
REMARK   54  A    between atoms: _134  and  _136
REMARK   55  A    between atoms: _136  and  _137
REMARK   56  A    between atoms: _136  and  _139
REMARK   57  A    between atoms: _139  and  _140
REMARK   58  A    between atoms: _143  and  _145
REMARK   59  A    between atoms: _145  and  _146
REMARK   60  A    between atoms: _145  and  _148
REMARK   61  A    between atoms: _148  and  _149
REMARK   62  A    between atoms: _152  and  _154
REMARK   63  A    between atoms: _154  and  _155
REMARK   64  A    between atoms: _154  and  _157
REMARK   65  A    between atoms: _157  and  _158
REMARK   66  A    between atoms: _161  and  _163
REMARK   67  A    between atoms: _163  and  _164
REMARK   68  A    between atoms: _163  and  _166
REMARK   69  A    between atoms: _166  and  _167
REMARK   70  A    between atoms: _170  and  _172
REMARK   71  A    between atoms: _172  and  _173
REMARK   72  A    between atoms: _172  and  _175
REMARK   73  A    between atoms: _175  and  _176
REMARK   74  A    between atoms: _176  and  _177
REMARK   75  A    between atoms: _177  and  _178
REMARK   76  A    between atoms: _187  and  _189
REMARK   77  A    between atoms: _189  and  _190
REMARK   78  A    between atoms: _189  and  _192
REMARK   79  A    between atoms: _192  and  _193
REMARK   80  A    between atoms: _199  and  _201
REMARK   81  A    between atoms: _201  and  _202
REMARK   82  A    between atoms: _201  and  _204
REMARK   83  A    between atoms: _204  and  _205
REMARK   84  A    between atoms: _205  and  _206
REMARK   85  A    between atoms: _208  and  _210
REMARK   86  A    between atoms: _210  and  _211
REMARK   87  A    between atoms: _210  and  _213
REMARK   88  A    between atoms: _213  and  _214
REMARK   89  A    between atoms: _217  and  _219
REMARK   90  A    between atoms: _219  and  _220
REMARK   91  A    between atoms: _222  and  _224
REMARK   92  A    between atoms: _224  and  _225
REMARK   93  A    between atoms: _224  and  _227
REMARK   94  A    between atoms: _227  and  _228
REMARK   95  A    between atoms: _231  and  _233
REMARK   96  A    between atoms: _233  and  _234
REMARK   97  A    between atoms: _233  and  _236
REMARK   98  A    between atoms: _236  and  _237
REMARK   99  A    between atoms: _239  and  _241
REMARK  100  A    between atoms: _241  and  _242
REMARK  101  A    between atoms: _244  and  _246
REMARK  102  A    between atoms: _246  and  _247
REMARK  103  A    between atoms: _246  and  _249
REMARK  104  A    between atoms: _249  and  _250
REMARK  105  A    between atoms: _253  and  _255
REMARK  106  A    between atoms: _255  and  _256
REMARK  107  A    between atoms: _255  and  _258
REMARK  108  A    between atoms: _258  and  _259
REMARK  109  A    between atoms: _262  and  _264
REMARK  110  A    between atoms: _264  and  _265
REMARK  111  A    between atoms: _264  and  _267
REMARK  112  A    between atoms: _267  and  _268
REMARK  113  A    between atoms: _271  and  _273
REMARK  114  A    between atoms: _273  and  _274
REMARK  115  A    between atoms: _273  and  _276
REMARK  116  A    between atoms: _276  and  _277
REMARK  117  A    between atoms: _279  and  _281
REMARK  118  A    between atoms: _281  and  _282
REMARK  119  A    between atoms: _284  and  _286
REMARK  120  A    between atoms: _286  and  _287
REMARK  121  A    between atoms: _286  and  _289
REMARK  122  A    between atoms: _289  and  _290
REMARK  123  A    between atoms: _292  and  _294
REMARK  124  A    between atoms: _294  and  _295
REMARK  125  A    between atoms: _294  and  _297
REMARK  126  A    between atoms: _297  and  _298
REMARK  127  A    between atoms: _301  and  _303
REMARK  128  A    between atoms: _303  and  _304
REMARK  129  A    between atoms: _303  and  _306
REMARK  130  A    between atoms: _306  and  _307
REMARK  131  A    between atoms: _307  and  _308
REMARK  132  A    between atoms: _308  and  _309
REMARK  133  A    between atoms: _309  and  _310
REMARK  134  A    between atoms: _314  and  _316
REMARK  135  A    between atoms: _316  and  _317
REMARK  136  A    between atoms: _316  and  _319
REMARK  137  A    between atoms: _319  and  _320
REMARK  138  A    between atoms: _320  and  _321
REMARK  139  A    between atoms: _324  and  _326
REMARK  140  A    between atoms: _326  and  _327
REMARK  141  A    between atoms: _326  and  _329
REMARK  142  A    between atoms: _329  and  _330
REMARK  143  A    between atoms: _336  and  _338
REMARK  144  A    between atoms: _338  and  _339
REMARK  145  A    between atoms: _338  and  _341
REMARK  146  A    between atoms: _341  and  _342
REMARK  147  A    between atoms: _348  and  _350
REMARK  148  A    between atoms: _350  and  _351
REMARK  149  A    between atoms: _350  and  _353
REMARK  150  A    between atoms: _356  and  _358
REMARK  151  A    between atoms: _358  and  _359
REMARK  152  A    between atoms: _358  and  _361
REMARK  153  A    between atoms: _361  and  _362
REMARK  154  A    between atoms: _365  and  _367
REMARK  155  A    between atoms: _367  and  _368
REMARK  156  A    between atoms: _371  and  _373
REMARK  157  A    between atoms: _373  and  _374
REMARK  158  A    between atoms: _373  and  _376
REMARK  159  A    between atoms: _379  and  _381
REMARK  160  A    between atoms: _381  and  _382
REMARK  161  A    between atoms: _381  and  _384
REMARK  162  A    between atoms: _384  and  _385
REMARK  163  A    between atoms: _390  and  _391
REMARK  164  A    between atoms: _393  and  _395
REMARK  165  A    between atoms: _395  and  _396
REMARK  166  A    between atoms: _395  and  _398
REMARK  167  A    between atoms: _398  and  _399
REMARK  168  A    between atoms: _402  and  _404
REMARK  169  A    between atoms: _404  and  _405
REMARK  170  A    between atoms: _404  and  _407
REMARK  171  A    between atoms: _407  and  _408
REMARK  172  A    between atoms: _411  and  _413
REMARK  173  A    between atoms: _413  and  _414
REMARK  174  A    between atoms: _413  and  _416
REMARK  175  A    between atoms: _416  and  _417
REMARK  176  A    between atoms: _417  and  _418
REMARK  177  A    between atoms: _421  and  _423
REMARK  178  A    between atoms: _423  and  _424
REMARK  179  A    between atoms: _423  and  _426
REMARK  180  A    between atoms: _426  and  _427
REMARK  181  A    between atoms: _429  and  _431
REMARK  182  A    between atoms: _431  and  _432
REMARK  183  A    between atoms: _431  and  _434
REMARK  184  A    between atoms: _434  and  _435
REMARK  185  A    between atoms: _438  and  _440
REMARK  186  A    between atoms: _440  and  _441
REMARK  187  A    between atoms: _440  and  _443
REMARK  188  A    between atoms: _443  and  _444
REMARK  189  A    between atoms: _444  and  _445
REMARK  190  A    between atoms: _447  and  _449
REMARK  191  A    between atoms: _449  and  _450
REMARK  192  A    between atoms: _449  and  _452
REMARK  193  A    between atoms: _452  and  _453
REMARK  194  A    between atoms: _458  and  _460
REMARK  195  A    between atoms: _460  and  _461
REMARK  196  A    between atoms: _460  and  _463
REMARK  197  A    between atoms: _463  and  _464
REMARK  198  A    between atoms: _464  and  _465
REMARK  199  A    between atoms: _468  and  _470
REMARK  200  A    between atoms: _470  and  _471
REMARK  201  A    between atoms: _470  and  _473
REMARK  202  A    between atoms: _473  and  _474
REMARK  203  A    between atoms: _479  and  _480
REMARK  204  A    between atoms: _482  and  _484
REMARK  205  A    between atoms: _484  and  _485
REMARK  206  A    between atoms: _484  and  _487
REMARK  207  A    between atoms: _487  and  _488
REMARK  208  A    between atoms: _491  and  _493
REMARK  209  A    between atoms: _493  and  _494
REMARK  210  A    between atoms: _493  and  _496
REMARK  211  A    between atoms: _496  and  _497
REMARK  212  A    between atoms: _497  and  _498
REMARK  213  A    between atoms: _498  and  _499
REMARK  214  A    between atoms: _499  and  _500
REMARK  215  A    between atoms: _504  and  _506
REMARK  216  A    between atoms: _506  and  _507
REMARK  217  A    between atoms: _509  and  _511
REMARK  218  A    between atoms: _511  and  _512
REMARK  219  A    between atoms: _511  and  _514
REMARK  220  A    between atoms: _514  and  _515
REMARK  221  A    between atoms: _520  and  _521
REMARK  222  A    between atoms: _523  and  _525
REMARK  223  A    between atoms: _525  and  _526
REMARK  224  A    between atoms: _528  and  _530
REMARK  225  A    between atoms: _530  and  _531
REMARK  226  A    between atoms: _530  and  _533
REMARK  227  A    between atoms: _533  and  _534
REMARK  228  A    between atoms: _534  and  _535
REMARK  229  A    between atoms: _535  and  _536
REMARK  230  A    between atoms: _536  and  _537
REMARK  231  A    between atoms: _541  and  _543
REMARK  232  A    between atoms: _543  and  _544
REMARK  233  A    between atoms: _543  and  _546
REMARK  234  A    between atoms: _546  and  _547
REMARK                            x       y       z     vdW  Elec       q    Type
REMARK                         _______ _______ _______ _____ _____    ______ ____
ROOT
ATOM      1  CG  LYS A   1      22.418  26.309  26.677  0.00  0.00    -0.000 C 
ENDROOT
BRANCH   1   2
ATOM      2  CB  LYS A   1      23.232  26.823  25.491  0.00  0.00    +0.025 C 
BRANCH   2   3
ATOM      3  CA  LYS A   1      23.333  28.349  25.423  0.00  0.00    +0.133 C 
BRANCH   3   4
ATOM      4  N   LYS A   1      24.339  28.748  24.451  0.00  0.00    -0.239 NA
ATOM      5  H   LYS A   1      24.916  28.019  23.984  0.00  0.00    +0.142 HD
ENDBRANCH   3   4
BRANCH   3   6
ATOM      6  C   LYS A   1      23.657  28.903  26.807  0.00  0.00    +0.224 C 
ATOM      7  O   LYS A   1      22.772  29.416  27.491  0.00  0.00    -0.287 OA
ENDBRANCH   3   6
ENDBRANCH   2   3
ENDBRANCH   1   2
BRANCH   1   8
ATOM      8  CD  LYS A   1      21.153  25.599  26.236  0.00  0.00    -0.024 C 
BRANCH   8   9
ATOM      9  CE  LYS A   1      20.411  25.004  27.435  0.00  0.00    -0.086 C 
BRANCH   9  10
ATOM     10  NZ  LYS A   1      19.215  24.215  27.024  0.00  0.00    +0.380 N 
ATOM     11  HZ1 LYS A   1      18.746  23.833  27.870  0.00  0.00    -0.089 HD
ATOM     12  HZ2 LYS A   1      18.555  24.832  26.509  0.00  0.00    -0.089 HD
ATOM     13  HZ3 LYS A   1      19.513  23.432  26.407  0.00  0.00    -0.089 HD
ENDBRANCH   9  10
ENDBRANCH   8   9
ENDBRANCH   1   8
TORSDOF 7
REMARK  Name = ../refined-set-2016/2p2a/2p2a_pocket.pdb
REMARK  234 active torsions:
REMARK  status: ('A' for Active; 'I' for Inactive)
REMARK    1  A    between atoms: _1  and  _3
REMARK    2  A    between atoms: _3  and  _4
REMARK    3  A    between atoms: _3  and  _6
REMARK    4  A    between atoms: _6  and  _7
REMARK    5  A    between atoms: _10  and  _12
REMARK    6  A    between atoms: _12  and  _13
REMARK    7  A    between atoms: _12  and  _15
REMARK    8  A    between atoms: _15  and  _16
REMARK    9  A    between atoms: _19  and  _21
REMARK   10  A    between atoms: _21  and  _22
REMARK   11  A    between atoms: _21  and  _24
REMARK   12  A    between atoms: _24  and  _25
REMARK   13  A    between atoms: _25  and  _26
REMARK   14  A    between atoms: _29  and  _31
REMARK   15  A    between atoms: _31  and  _32
REMARK   16  A    between atoms: _31  and  _34
REMARK   17  A    between atoms: _34  and  _35
REMARK   18  A    between atoms: _38  and  _39
REMARK   19  A    between atoms: _44  and  _46
REMARK   20  A    between atoms: _46  and  _47
REMARK   21  A    between atoms: _46  and  _49
REMARK   22  A    between atoms: _49  and  _50
REMARK   23  A    between atoms: _55  and  _56
REMARK   24  A    between atoms: _58  and  _60
REMARK   25  A    between atoms: _60  and  _61
REMARK   26  A    between atoms: _60  and  _63
REMARK   27  A    between atoms: _66  and  _68
REMARK   28  A    between atoms: _68  and  _69
REMARK   29  A    between atoms: _68  and  _71
REMARK   30  A    between atoms: _71  and  _72
REMARK   31  A    between atoms: _72  and  _73
REMARK   32  A    between atoms: _73  and  _74
REMARK   33  A    between atoms: _74  and  _75
REMARK   34  A    between atoms: _79  and  _81
REMARK   35  A    between atoms: _81  and  _82
REMARK   36  A    between atoms: _81  and  _84
REMARK   37  A    between atoms: _84  and  _85
REMARK   38  A    between atoms: _90  and  _91
REMARK   39  A    between atoms: _93  and  _95
REMARK   40  A    between atoms: _95  and  _96
REMARK   41  A    between atoms: _98  and  _100
REMARK   42  A    between atoms: _100  and  _101
REMARK   43  A    between atoms: _104  and  _106
REMARK   44  A    between atoms: _106  and  _107
REMARK   45  A    between atoms: _106  and  _109
REMARK   46  A    between atoms: _109  and  _110
REMARK   47  A    between atoms: _110  and  _111
REMARK   48  A    between atoms: _113  and  _115
REMARK   49  A    between atoms: _115  and  _116
REMARK   50  A    between atoms: _115  and  _118
REMARK   51  A    between atoms: _121  and  _123
REMARK   52  A    between atoms: _123  and  _124
REMARK   53  A    between atoms: _128  and  _129
REMARK   54  A    between atoms: _134  and  _136
REMARK   55  A    between atoms: _136  and  _137
REMARK   56  A    between atoms: _136  and  _139
REMARK   57  A    between atoms: _139  and  _140
REMARK   58  A    between atoms: _143  and  _145
REMARK   59  A    between atoms: _145  and  _146
REMARK   60  A    between atoms: _145  and  _148
REMARK   61  A    between atoms: _148  and  _149
REMARK   62  A    between atoms: _152  and  _154
REMARK   63  A    between atoms: _154  and  _155
REMARK   64  A    between atoms: _154  and  _157
REMARK   65  A    between atoms: _157  and  _158
REMARK   66  A    between atoms: _161  and  _163
REMARK   67  A    between atoms: _163  and  _164
REMARK   68  A    between atoms: _163  and  _166
REMARK   69  A    between atoms: _166  and  _167
REMARK   70  A    between atoms: _170  and  _172
REMARK   71  A    between atoms: _172  and  _173
REMARK   72  A    between atoms: _172  and  _175
REMARK   73  A    between atoms: _175  and  _176
REMARK   74  A    between atoms: _176  and  _177
REMARK   75  A    between atoms: _177  and  _178
REMARK   76  A    between atoms: _187  and  _189
REMARK   77  A    between atoms: _189  and  _190
REMARK   78  A    between atoms: _189  and  _192
REMARK   79  A    between atoms: _192  and  _193
REMARK   80  A    between atoms: _199  and  _201
REMARK   81  A    between atoms: _201  and  _202
REMARK   82  A    between atoms: _201  and  _204
REMARK   83  A    between atoms: _204  and  _205
REMARK   84  A    between atoms: _205  and  _206
REMARK   85  A    between atoms: _208  and  _210
REMARK   86  A    between atoms: _210  and  _211
REMARK   87  A    between atoms: _210  and  _213
REMARK   88  A    between atoms: _213  and  _214
REMARK   89  A    between atoms: _217  and  _219
REMARK   90  A    between atoms: _219  and  _220
REMARK   91  A    between atoms: _222  and  _224
REMARK   92  A    between atoms: _224  and  _225
REMARK   93  A    between atoms: _224  and  _227
REMARK   94  A    between atoms: _227  and  _228
REMARK   95  A    between atoms: _231  and  _233
REMARK   96  A    between atoms: _233  and  _234
REMARK   97  A    between atoms: _233  and  _236
REMARK   98  A    between atoms: _236  and  _237
REMARK   99  A    between atoms: _239  and  _241
REMARK  100  A    between atoms: _241  and  _242
REMARK  101  A    between atoms: _244  and  _246
REMARK  102  A    between atoms: _246  and  _247
REMARK  103  A    between atoms: _246  and  _249
REMARK  104  A    between atoms: _249  and  _250
REMARK  105  A    between atoms: _253  and  _255
REMARK  106  A    between atoms: _255  and  _256
REMARK  107  A    between atoms: _255  and  _258
REMARK  108  A    between atoms: _258  and  _259
REMARK  109  A    between atoms: _262  and  _264
REMARK  110  A    between atoms: _264  and  _265
REMARK  111  A    between atoms: _264  and  _267
REMARK  112  A    between atoms: _267  and  _268
REMARK  113  A    between atoms: _271  and  _273
REMARK  114  A    between atoms: _273  and  _274
REMARK  115  A    between atoms: _273  and  _276
REMARK  116  A    between atoms: _276  and  _277
REMARK  117  A    between atoms: _279  and  _281
REMARK  118  A    between atoms: _281  and  _282
REMARK  119  A    between atoms: _284  and  _286
REMARK  120  A    between atoms: _286  and  _287
REMARK  121  A    between atoms: _286  and  _289
REMARK  122  A    between atoms: _289  and  _290
REMARK  123  A    between atoms: _292  and  _294
REMARK  124  A    between atoms: _294  and  _295
REMARK  125  A    between atoms: _294  and  _297
REMARK  126  A    between atoms: _297  and  _298
REMARK  127  A    between atoms: _301  and  _303
REMARK  128  A    between atoms: _303  and  _304
REMARK  129  A    between atoms: _303  and  _306
REMARK  130  A    between atoms: _306  and  _307
REMARK  131  A    between atoms: _307  and  _308
REMARK  132  A    between atoms: _308  and  _309
REMARK  133  A    between atoms: _309  and  _310
REMARK  134  A    between atoms: _314  and  _316
REMARK  135  A    between atoms: _316  and  _317
REMARK  136  A    between atoms: _316  and  _319
REMARK  137  A    between atoms: _319  and  _320
REMARK  138  A    between atoms: _320  and  _321
REMARK  139  A    between atoms: _324  and  _326
REMARK  140  A    between atoms: _326  and  _327
REMARK  141  A    between atoms: _326  and  _329
REMARK  142  A    between atoms: _329  and  _330
REMARK  143  A    between atoms: _336  and  _338
REMARK  144  A    between atoms: _338  and  _339
REMARK  145  A    between atoms: _338  and  _341
REMARK  146  A    between atoms: _341  and  _342
REMARK  147  A    between atoms: _348  and  _350
REMARK  148  A    between atoms: _350  and  _351
REMARK  149  A    between atoms: _350  and  _353
REMARK  150  A    between atoms: _356  and  _358
REMARK  151  A    between atoms: _358  and  _359
REMARK  152  A    between atoms: _358  and  _361
REMARK  153  A    between atoms: _361  and  _362
REMARK  154  A    between atoms: _365  and  _367
REMARK  155  A    between atoms: _367  and  _368
REMARK  156  A    between atoms: _371  and  _373
REMARK  157  A    between atoms: _373  and  _374
REMARK  158  A    between atoms: _373  and  _376
REMARK  159  A    between atoms: _379  and  _381
REMARK  160  A    between atoms: _381  and  _382
REMARK  161  A    between atoms: _381  and  _384
REMARK  162  A    between atoms: _384  and  _385
REMARK  163  A    between atoms: _390  and  _391
REMARK  164  A    between atoms: _393  and  _395
REMARK  165  A    between atoms: _395  and  _396
REMARK  166  A    between atoms: _395  and  _398
REMARK  167  A    between atoms: _398  and  _399
REMARK  168  A    between atoms: _402  and  _404
REMARK  169  A    between atoms: _404  and  _405
REMARK  170  A    between atoms: _404  and  _407
REMARK  171  A    between atoms: _407  and  _408
REMARK  172  A    between atoms: _411  and  _413
REMARK  173  A    between atoms: _413  and  _414
REMARK  174  A    between atoms: _413  and  _416
REMARK  175  A    between atoms: _416  and  _417
REMARK  176  A    between atoms: _417  and  _418
REMARK  177  A    between atoms: _421  and  _423
REMARK  178  A    between atoms: _423  and  _424
REMARK  179  A    between atoms: _423  and  _426
REMARK  180  A    between atoms: _426  and  _427
REMARK  181  A    between atoms: _429  and  _431
REMARK  182  A    between atoms: _431  and  _432
REMARK  183  A    between atoms: _431  and  _434
REMARK  184  A    between atoms: _434  and  _435
REMARK  185  A    between atoms: _438  and  _440
REMARK  186  A    between atoms: _440  and  _441
REMARK  187  A    between atoms: _440  and  _443
REMARK  188  A    between atoms: _443  and  _444
REMARK  189  A    between atoms: _444  and  _445
REMARK  190  A    between atoms: _447  and  _449
REMARK  191  A    between atoms: _449  and  _450
REMARK  192  A    between atoms: _449  and  _452
REMARK  193  A    between atoms: _452  and  _453
REMARK  194  A    between atoms: _458  and  _460
REMARK  195  A    between atoms: _460  and  _461
REMARK  196  A    between atoms: _460  and  _463
REMARK  197  A    between atoms: _463  and  _464
REMARK  198  A    between atoms: _464  and  _465
REMARK  199  A    between atoms: _468  and  _470
REMARK  200  A    between atoms: _470  and  _471
REMARK  201  A    between atoms: _470  and  _473
REMARK  202  A    between atoms: _473  and  _474
REMARK  203  A    between atoms: _479  and  _480
REMARK  204  A    between atoms: _482  and  _484
REMARK  205  A    between atoms: _484  and  _485
REMARK  206  A    between atoms: _484  and  _487
REMARK  207  A    between atoms: _487  and  _488
REMARK  208  A    between atoms: _491  and  _493
REMARK  209  A    between atoms: _493  and  _494
REMARK  210  A    between atoms: _493  and  _496
REMARK  211  A    between atoms: _496  and  _497
REMARK  212  A    between atoms: _497  and  _498
REMARK  213  A    between atoms: _498  and  _499
REMARK  214  A    between atoms: _499  and  _500
REMARK  215  A    between atoms: _504  and  _506
REMARK  216  A    between atoms: _506  and  _507
REMARK  217  A    between atoms: _509  and  _511
REMARK  218  A    between atoms: _511  and  _512
REMARK  219  A    between atoms: _511  and  _514
REMARK  220  A    between atoms: _514  and  _515
REMARK  221  A    between atoms: _520  and  _521
REMARK  222  A    between atoms: _523  and  _525
REMARK  223  A    between atoms: _525  and  _526
REMARK  224  A    between atoms: _528  and  _530
REMARK  225  A    between atoms: _530  and  _531
REMARK  226  A    between atoms: _530  and  _533
REMARK  227  A    between atoms: _533  and  _534
REMARK  228  A    between atoms: _534  and  _535
REMARK  229  A    between atoms: _535  and  _536
REMARK  230  A    between atoms: _536  and  _537
REMARK  231  A    between atoms: _541  and  _543
REMARK  232  A    between atoms: _543  and  _544
REMARK  233  A    between atoms: _543  and  _546
REMARK  234  A    between atoms: _546  and  _547
REMARK                            x       y       z     vdW  Elec       q    Type
REMARK                         _______ _______ _______ _____ _____    ______ ____
ROOT
ATOM      1  CG  TRP A   1      19.191  29.021  28.818  0.00  0.00    -0.002 A 
ATOM      2  CD1 TRP A   1      18.051  28.552  29.416  0.00  0.00    +0.068 A 
ATOM      3  NE1 TRP A   1      17.088  28.295  28.470  0.00  0.00    -0.352 N 
ATOM      4  HE1 TRP A   1      16.133  27.931  28.664  0.00  0.00    +0.166 HD
ATOM      5  CE2 TRP A   1      17.589  28.595  27.231  0.00  0.00    +0.056 A 
ATOM      6  CZ2 TRP A   1      16.988  28.501  25.965  0.00  0.00    +0.017 A 
ATOM      7  CH2 TRP A   1      17.738  28.874  24.876  0.00  0.00    +0.001 A 
ATOM      8  CZ3 TRP A   1      19.062  29.335  25.019  0.00  0.00    +0.000 A 
ATOM      9  CE3 TRP A   1      19.660  29.430  26.281  0.00  0.00    +0.001 A 
ATOM     10  CD2 TRP A   1      18.916  29.055  27.409  0.00  0.00    +0.013 A 
ENDROOT
BRANCH   1  11
ATOM     11  CB  TRP A   1      20.462  29.462  29.509  0.00  0.00    +0.053 C 
BRANCH  11  12
ATOM     12  CA  TRP A   1      20.578  30.984  29.725  0.00  0.00    +0.137 C 
BRANCH  12  13
ATOM     13  N   TRP A   1      21.267  31.619  28.597  0.00  0.00    -0.239 NA
ATOM     14  H   TRP A   1      22.171  31.223  28.271  0.00  0.00    +0.142 HD
ENDBRANCH  12  13
BRANCH  12  15
ATOM     15  C   TRP A   1      21.402  31.283  30.986  0.00  0.00    +0.224 C 
ATOM     16  O   TRP A   1      21.183  30.697  32.045  0.00  0.00    -0.287 OA
ENDBRANCH  12  15
ENDBRANCH  11  12
ENDBRANCH   1  11
TORSDOF 4
REMARK  Name = ../refined-set-2016/2p2a/2p2a_pocket.pdb
REMARK  234 active torsions:
REMARK  status: ('A' for Active; 'I' for Inactive)
REMARK    1  A    between atoms: _1  and  _3
REMARK    2  A    between atoms: _3  and  _4
REMARK    3  A    between atoms: _3  and  _6
REMARK    4  A    between atoms: _6  and  _7
REMARK    5  A    between atoms: _10  and  _12
REMARK    6  A    between atoms: _12  and  _13
REMARK    7  A    between atoms: _12  and  _15
REMARK    8  A    between atoms: _15  and  _16
REMARK    9  A    between atoms: _19  and  _21
REMARK   10  A    between atoms: _21  and  _22
REMARK   11  A    between atoms: _21  and  _24
REMARK   12  A    between atoms: _24  and  _25
REMARK   13  A    between atoms: _25  and  _26
REMARK   14  A    between atoms: _29  and  _31
REMARK   15  A    between atoms: _31  and  _32
REMARK   16  A    between atoms: _31  and  _34
REMARK   17  A    between atoms: _34  and  _35
REMARK   18  A    between atoms: _38  and  _39
REMARK   19  A    between atoms: _44  and  _46
REMARK   20  A    between atoms: _46  and  _47
REMARK   21  A    between atoms: _46  and  _49
REMARK   22  A    between atoms: _49  and  _50
REMARK   23  A    between atoms: _55  and  _56
REMARK   24  A    between atoms: _58  and  _60
REMARK   25  A    between atoms: _60  and  _61
REMARK   26  A    between atoms: _60  and  _63
REMARK   27  A    between atoms: _66  and  _68
REMARK   28  A    between atoms: _68  and  _69
REMARK   29  A    between atoms: _68  and  _71
REMARK   30  A    between atoms: _71  and  _72
REMARK   31  A    between atoms: _72  and  _73
REMARK   32  A    between atoms: _73  and  _74
REMARK   33  A    between atoms: _74  and  _75
REMARK   34  A    between atoms: _79  and  _81
REMARK   35  A    between atoms: _81  and  _82
REMARK   36  A    between atoms: _81  and  _84
REMARK   37  A    between atoms: _84  and  _85
REMARK   38  A    between atoms: _90  and  _91
REMARK   39  A    between atoms: _93  and  _95
REMARK   40  A    between atoms: _95  and  _96
REMARK   41  A    between atoms: _98  and  _100
REMARK   42  A    between atoms: _100  and  _101
REMARK   43  A    between atoms: _104  and  _106
REMARK   44  A    between atoms: _106  and  _107
REMARK   45  A    between atoms: _106  and  _109
REMARK   46  A    between atoms: _109  and  _110
REMARK   47  A    between atoms: _110  and  _111
REMARK   48  A    between atoms: _113  and  _115
REMARK   49  A    between atoms: _115  and  _116
REMARK   50  A    between atoms: _115  and  _118
REMARK   51  A    between atoms: _121  and  _123
REMARK   52  A    between atoms: _123  and  _124
REMARK   53  A    between atoms: _128  and  _129
REMARK   54  A    between atoms: _134  and  _136
REMARK   55  A    between atoms: _136  and  _137
REMARK   56  A    between atoms: _136  and  _139
REMARK   57  A    between atoms: _139  and  _140
REMARK   58  A    between atoms: _143  and  _145
REMARK   59  A    between atoms: _145  and  _146
REMARK   60  A    between atoms: _145  and  _148
REMARK   61  A    between atoms: _148  and  _149
REMARK   62  A    between atoms: _152  and  _154
REMARK   63  A    between atoms: _154  and  _155
REMARK   64  A    between atoms: _154  and  _157
REMARK   65  A    between atoms: _157  and  _158
REMARK   66  A    between atoms: _161  and  _163
REMARK   67  A    between atoms: _163  and  _164
REMARK   68  A    between atoms: _163  and  _166
REMARK   69  A    between atoms: _166  and  _167
REMARK   70  A    between atoms: _170  and  _172
REMARK   71  A    between atoms: _172  and  _173
REMARK   72  A    between atoms: _172  and  _175
REMARK   73  A    between atoms: _175  and  _176
REMARK   74  A    between atoms: _176  and  _177
REMARK   75  A    between atoms: _177  and  _178
REMARK   76  A    between atoms: _187  and  _189
REMARK   77  A    between atoms: _189  and  _190
REMARK   78  A    between atoms: _189  and  _192
REMARK   79  A    between atoms: _192  and  _193
REMARK   80  A    between atoms: _199  and  _201
REMARK   81  A    between atoms: _201  and  _202
REMARK   82  A    between atoms: _201  and  _204
REMARK   83  A    between atoms: _204  and  _205
REMARK   84  A    between atoms: _205  and  _206
REMARK   85  A    between atoms: _208  and  _210
REMARK   86  A    between atoms: _210  and  _211
REMARK   87  A    between atoms: _210  and  _213
REMARK   88  A    between atoms: _213  and  _214
REMARK   89  A    between atoms: _217  and  _219
REMARK   90  A    between atoms: _219  and  _220
REMARK   91  A    between atoms: _222  and  _224
REMARK   92  A    between atoms: _224  and  _225
REMARK   93  A    between atoms: _224  and  _227
REMARK   94  A    between atoms: _227  and  _228
REMARK   95  A    between atoms: _231  and  _233
REMARK   96  A    between atoms: _233  and  _234
REMARK   97  A    between atoms: _233  and  _236
REMARK   98  A    between atoms: _236  and  _237
REMARK   99  A    between atoms: _239  and  _241
REMARK  100  A    between atoms: _241  and  _242
REMARK  101  A    between atoms: _244  and  _246
REMARK  102  A    between atoms: _246  and  _247
REMARK  103  A    between atoms: _246  and  _249
REMARK  104  A    between atoms: _249  and  _250
REMARK  105  A    between atoms: _253  and  _255
REMARK  106  A    between atoms: _255  and  _256
REMARK  107  A    between atoms: _255  and  _258
REMARK  108  A    between atoms: _258  and  _259
REMARK  109  A    between atoms: _262  and  _264
REMARK  110  A    between atoms: _264  and  _265
REMARK  111  A    between atoms: _264  and  _267
REMARK  112  A    between atoms: _267  and  _268
REMARK  113  A    between atoms: _271  and  _273
REMARK  114  A    between atoms: _273  and  _274
REMARK  115  A    between atoms: _273  and  _276
REMARK  116  A    between atoms: _276  and  _277
REMARK  117  A    between atoms: _279  and  _281
REMARK  118  A    between atoms: _281  and  _282
REMARK  119  A    between atoms: _284  and  _286
REMARK  120  A    between atoms: _286  and  _287
REMARK  121  A    between atoms: _286  and  _289
REMARK  122  A    between atoms: _289  and  _290
REMARK  123  A    between atoms: _292  and  _294
REMARK  124  A    between atoms: _294  and  _295
REMARK  125  A    between atoms: _294  and  _297
REMARK  126  A    between atoms: _297  and  _298
REMARK  127  A    between atoms: _301  and  _303
REMARK  128  A    between atoms: _303  and  _304
REMARK  129  A    between atoms: _303  and  _306
REMARK  130  A    between atoms: _306  and  _307
REMARK  131  A    between atoms: _307  and  _308
REMARK  132  A    between atoms: _308  and  _309
REMARK  133  A    between atoms: _309  and  _310
REMARK  134  A    between atoms: _314  and  _316
REMARK  135  A    between atoms: _316  and  _317
REMARK  136  A    between atoms: _316  and  _319
REMARK  137  A    between atoms: _319  and  _320
REMARK  138  A    between atoms: _320  and  _321
REMARK  139  A    between atoms: _324  and  _326
REMARK  140  A    between atoms: _326  and  _327
REMARK  141  A    between atoms: _326  and  _329
REMARK  142  A    between atoms: _329  and  _330
REMARK  143  A    between atoms: _336  and  _338
REMARK  144  A    between atoms: _338  and  _339
REMARK  145  A    between atoms: _338  and  _341
REMARK  146  A    between atoms: _341  and  _342
REMARK  147  A    between atoms: _348  and  _350
REMARK  148  A    between atoms: _350  and  _351
REMARK  149  A    between atoms: _350  and  _353
REMARK  150  A    between atoms: _356  and  _358
REMARK  151  A    between atoms: _358  and  _359
REMARK  152  A    between atoms: _358  and  _361
REMARK  153  A    between atoms: _361  and  _362
REMARK  154  A    between atoms: _365  and  _367
REMARK  155  A    between atoms: _367  and  _368
REMARK  156  A    between atoms: _371  and  _373
REMARK  157  A    between atoms: _373  and  _374
REMARK  158  A    between atoms: _373  and  _376
REMARK  159  A    between atoms: _379  and  _381
REMARK  160  A    between atoms: _381  and  _382
REMARK  161  A    between atoms: _381  and  _384
REMARK  162  A    between atoms: _384  and  _385
REMARK  163  A    between atoms: _390  and  _391
REMARK  164  A    between atoms: _393  and  _395
REMARK  165  A    between atoms: _395  and  _396
REMARK  166  A    between atoms: _395  and  _398
REMARK  167  A    between atoms: _398  and  _399
REMARK  168  A    between atoms: _402  and  _404
REMARK  169  A    between atoms: _404  and  _405
REMARK  170  A    between atoms: _404  and  _407
REMARK  171  A    between atoms: _407  and  _408
REMARK  172  A    between atoms: _411  and  _413
REMARK  173  A    between atoms: _413  and  _414
REMARK  174  A    between atoms: _413  and  _416
REMARK  175  A    between atoms: _416  and  _417
REMARK  176  A    between atoms: _417  and  _418
REMARK  177  A    between atoms: _421  and  _423
REMARK  178  A    between atoms: _423  and  _424
REMARK  179  A    between atoms: _423  and  _426
REMARK  180  A    between atoms: _426  and  _427
REMARK  181  A    between atoms: _429  and  _431
REMARK  182  A    between atoms: _431  and  _432
REMARK  183  A    between atoms: _431  and  _434
REMARK  184  A    between atoms: _434  and  _435
REMARK  185  A    between atoms: _438  and  _440
REMARK  186  A    between atoms: _440  and  _441
REMARK  187  A    between atoms: _440  and  _443
REMARK  188  A    between atoms: _443  and  _444
REMARK  189  A    between atoms: _444  and  _445
REMARK  190  A    between atoms: _447  and  _449
REMARK  191  A    between atoms: _449  and  _450
REMARK  192  A    between atoms: _449  and  _452
REMARK  193  A    between atoms: _452  and  _453
REMARK  194  A    between atoms: _458  and  _460
REMARK  195  A    between atoms: _460  and  _461
REMARK  196  A    between atoms: _460  and  _463
REMARK  197  A    between atoms: _463  and  _464
REMARK  198  A    between atoms: _464  and  _465
REMARK  199  A    between atoms: _468  and  _470
REMARK  200  A    between atoms: _470  and  _471
REMARK  201  A    between atoms: _470  and  _473
REMARK  202  A    between atoms: _473  and  _474
REMARK  203  A    between atoms: _479  and  _480
REMARK  204  A    between atoms: _482  and  _484
REMARK  205  A    between atoms: _484  and  _485
REMARK  206  A    between atoms: _484  and  _487
REMARK  207  A    between atoms: _487  and  _488
REMARK  208  A    between atoms: _491  and  _493
REMARK  209  A    between atoms: _493  and  _494
REMARK  210  A    between atoms: _493  and  _496
REMARK  211  A    between atoms: _496  and  _497
REMARK  212  A    between atoms: _497  and  _498
REMARK  213  A    between atoms: _498  and  _499
REMARK  214  A    between atoms: _499  and  _500
REMARK  215  A    between atoms: _504  and  _506
REMARK  216  A    between atoms: _506  and  _507
REMARK  217  A    between atoms: _509  and  _511
REMARK  218  A    between atoms: _511  and  _512
REMARK  219  A    between atoms: _511  and  _514
REMARK  220  A    between atoms: _514  and  _515
REMARK  221  A    between atoms: _520  and  _521
REMARK  222  A    between atoms: _523  and  _525
REMARK  223  A    between atoms: _525  and  _526
REMARK  224  A    between atoms: _528  and  _530
REMARK  225  A    between atoms: _530  and  _531
REMARK  226  A    between atoms: _530  and  _533
REMARK  227  A    between atoms: _533  and  _534
REMARK  228  A    between atoms: _534  and  _535
REMARK  229  A    between atoms: _535  and  _536
REMARK  230  A    between atoms: _536  and  _537
REMARK  231  A    between atoms: _541  and  _543
REMARK  232  A    between atoms: _543  and  _544
REMARK  233  A    between atoms: _543  and  _546
REMARK  234  A    between atoms: _546  and  _547
REMARK                            x       y       z     vdW  Elec       q    Type
REMARK                         _______ _______ _______ _____ _____    ______ ____
ROOT
ATOM      1  O   HOH     1       6.882  19.712  21.416  0.00  0.00    +0.000 OA
ENDROOT
TORSDOF 0
REMARK  Name = ../refined-set-2016/2p2a/2p2a_pocket.pdb
REMARK  234 active torsions:
REMARK  status: ('A' for Active; 'I' for Inactive)
REMARK    1  A    between atoms: _1  and  _3
REMARK    2  A    between atoms: _3  and  _4
REMARK    3  A    between atoms: _3  and  _6
REMARK    4  A    between atoms: _6  and  _7
REMARK    5  A    between atoms: _10  and  _12
REMARK    6  A    between atoms: _12  and  _13
REMARK    7  A    between atoms: _12  and  _15
REMARK    8  A    between atoms: _15  and  _16
REMARK    9  A    between atoms: _19  and  _21
REMARK   10  A    between atoms: _21  and  _22
REMARK   11  A    between atoms: _21  and  _24
REMARK   12  A    between atoms: _24  and  _25
REMARK   13  A    between atoms: _25  and  _26
REMARK   14  A    between atoms: _29  and  _31
REMARK   15  A    between atoms: _31  and  _32
REMARK   16  A    between atoms: _31  and  _34
REMARK   17  A    between atoms: _34  and  _35
REMARK   18  A    between atoms: _38  and  _39
REMARK   19  A    between atoms: _44  and  _46
REMARK   20  A    between atoms: _46  and  _47
REMARK   21  A    between atoms: _46  and  _49
REMARK   22  A    between atoms: _49  and  _50
REMARK   23  A    between atoms: _55  and  _56
REMARK   24  A    between atoms: _58  and  _60
REMARK   25  A    between atoms: _60  and  _61
REMARK   26  A    between atoms: _60  and  _63
REMARK   27  A    between atoms: _66  and  _68
REMARK   28  A    between atoms: _68  and  _69
REMARK   29  A    between atoms: _68  and  _71
REMARK   30  A    between atoms: _71  and  _72
REMARK   31  A    between atoms: _72  and  _73
REMARK   32  A    between atoms: _73  and  _74
REMARK   33  A    between atoms: _74  and  _75
REMARK   34  A    between atoms: _79  and  _81
REMARK   35  A    between atoms: _81  and  _82
REMARK   36  A    between atoms: _81  and  _84
REMARK   37  A    between atoms: _84  and  _85
REMARK   38  A    between atoms: _90  and  _91
REMARK   39  A    between atoms: _93  and  _95
REMARK   40  A    between atoms: _95  and  _96
REMARK   41  A    between atoms: _98  and  _100
REMARK   42  A    between atoms: _100  and  _101
REMARK   43  A    between atoms: _104  and  _106
REMARK   44  A    between atoms: _106  and  _107
REMARK   45  A    between atoms: _106  and  _109
REMARK   46  A    between atoms: _109  and  _110
REMARK   47  A    between atoms: _110  and  _111
REMARK   48  A    between atoms: _113  and  _115
REMARK   49  A    between atoms: _115  and  _116
REMARK   50  A    between atoms: _115  and  _118
REMARK   51  A    between atoms: _121  and  _123
REMARK   52  A    between atoms: _123  and  _124
REMARK   53  A    between atoms: _128  and  _129
REMARK   54  A    between atoms: _134  and  _136
REMARK   55  A    between atoms: _136  and  _137
REMARK   56  A    between atoms: _136  and  _139
REMARK   57  A    between atoms: _139  and  _140
REMARK   58  A    between atoms: _143  and  _145
REMARK   59  A    between atoms: _145  and  _146
REMARK   60  A    between atoms: _145  and  _148
REMARK   61  A    between atoms: _148  and  _149
REMARK   62  A    between atoms: _152  and  _154
REMARK   63  A    between atoms: _154  and  _155
REMARK   64  A    between atoms: _154  and  _157
REMARK   65  A    between atoms: _157  and  _158
REMARK   66  A    between atoms: _161  and  _163
REMARK   67  A    between atoms: _163  and  _164
REMARK   68  A    between atoms: _163  and  _166
REMARK   69  A    between atoms: _166  and  _167
REMARK   70  A    between atoms: _170  and  _172
REMARK   71  A    between atoms: _172  and  _173
REMARK   72  A    between atoms: _172  and  _175
REMARK   73  A    between atoms: _175  and  _176
REMARK   74  A    between atoms: _176  and  _177
REMARK   75  A    between atoms: _177  and  _178
REMARK   76  A    between atoms: _187  and  _189
REMARK   77  A    between atoms: _189  and  _190
REMARK   78  A    between atoms: _189  and  _192
REMARK   79  A    between atoms: _192  and  _193
REMARK   80  A    between atoms: _199  and  _201
REMARK   81  A    between atoms: _201  and  _202
REMARK   82  A    between atoms: _201  and  _204
REMARK   83  A    between atoms: _204  and  _205
REMARK   84  A    between atoms: _205  and  _206
REMARK   85  A    between atoms: _208  and  _210
REMARK   86  A    between atoms: _210  and  _211
REMARK   87  A    between atoms: _210  and  _213
REMARK   88  A    between atoms: _213  and  _214
REMARK   89  A    between atoms: _217  and  _219
REMARK   90  A    between atoms: _219  and  _220
REMARK   91  A    between atoms: _222  and  _224
REMARK   92  A    between atoms: _224  and  _225
REMARK   93  A    between atoms: _224  and  _227
REMARK   94  A    between atoms: _227  and  _228
REMARK   95  A    between atoms: _231  and  _233
REMARK   96  A    between atoms: _233  and  _234
REMARK   97  A    between atoms: _233  and  _236
REMARK   98  A    between atoms: _236  and  _237
REMARK   99  A    between atoms: _239  and  _241
REMARK  100  A    between atoms: _241  and  _242
REMARK  101  A    between atoms: _244  and  _246
REMARK  102  A    between atoms: _246  and  _247
REMARK  103  A    between atoms: _246  and  _249
REMARK  104  A    between atoms: _249  and  _250
REMARK  105  A    between atoms: _253  and  _255
REMARK  106  A    between atoms: _255  and  _256
REMARK  107  A    between atoms: _255  and  _258
REMARK  108  A    between atoms: _258  and  _259
REMARK  109  A    between atoms: _262  and  _264
REMARK  110  A    between atoms: _264  and  _265
REMARK  111  A    between atoms: _264  and  _267
REMARK  112  A    between atoms: _267  and  _268
REMARK  113  A    between atoms: _271  and  _273
REMARK  114  A    between atoms: _273  and  _274
REMARK  115  A    between atoms: _273  and  _276
REMARK  116  A    between atoms: _276  and  _277
REMARK  117  A    between atoms: _279  and  _281
REMARK  118  A    between atoms: _281  and  _282
REMARK  119  A    between atoms: _284  and  _286
REMARK  120  A    between atoms: _286  and  _287
REMARK  121  A    between atoms: _286  and  _289
REMARK  122  A    between atoms: _289  and  _290
REMARK  123  A    between atoms: _292  and  _294
REMARK  124  A    between atoms: _294  and  _295
REMARK  125  A    between atoms: _294  and  _297
REMARK  126  A    between atoms: _297  and  _298
REMARK  127  A    between atoms: _301  and  _303
REMARK  128  A    between atoms: _303  and  _304
REMARK  129  A    between atoms: _303  and  _306
REMARK  130  A    between atoms: _306  and  _307
REMARK  131  A    between atoms: _307  and  _308
REMARK  132  A    between atoms: _308  and  _309
REMARK  133  A    between atoms: _309  and  _310
REMARK  134  A    between atoms: _314  and  _316
REMARK  135  A    between atoms: _316  and  _317
REMARK  136  A    between atoms: _316  and  _319
REMARK  137  A    between atoms: _319  and  _320
REMARK  138  A    between atoms: _320  and  _321
REMARK  139  A    between atoms: _324  and  _326
REMARK  140  A    between atoms: _326  and  _327
REMARK  141  A    between atoms: _326  and  _329
REMARK  142  A    between atoms: _329  and  _330
REMARK  143  A    between atoms: _336  and  _338
REMARK  144  A    between atoms: _338  and  _339
REMARK  145  A    between atoms: _338  and  _341
REMARK  146  A    between atoms: _341  and  _342
REMARK  147  A    between atoms: _348  and  _350
REMARK  148  A    between atoms: _350  and  _351
REMARK  149  A    between atoms: _350  and  _353
REMARK  150  A    between atoms: _356  and  _358
REMARK  151  A    between atoms: _358  and  _359
REMARK  152  A    between atoms: _358  and  _361
REMARK  153  A    between atoms: _361  and  _362
REMARK  154  A    between atoms: _365  and  _367
REMARK  155  A    between atoms: _367  and  _368
REMARK  156  A    between atoms: _371  and  _373
REMARK  157  A    between atoms: _373  and  _374
REMARK  158  A    between atoms: _373  and  _376
REMARK  159  A    between atoms: _379  and  _381
REMARK  160  A    between atoms: _381  and  _382
REMARK  161  A    between atoms: _381  and  _384
REMARK  162  A    between atoms: _384  and  _385
REMARK  163  A    between atoms: _390  and  _391
REMARK  164  A    between atoms: _393  and  _395
REMARK  165  A    between atoms: _395  and  _396
REMARK  166  A    between atoms: _395  and  _398
REMARK  167  A    between atoms: _398  and  _399
REMARK  168  A    between atoms: _402  and  _404
REMARK  169  A    between atoms: _404  and  _405
REMARK  170  A    between atoms: _404  and  _407
REMARK  171  A    between atoms: _407  and  _408
REMARK  172  A    between atoms: _411  and  _413
REMARK  173  A    between atoms: _413  and  _414
REMARK  174  A    between atoms: _413  and  _416
REMARK  175  A    between atoms: _416  and  _417
REMARK  176  A    between atoms: _417  and  _418
REMARK  177  A    between atoms: _421  and  _423
REMARK  178  A    between atoms: _423  and  _424
REMARK  179  A    between atoms: _423  and  _426
REMARK  180  A    between atoms: _426  and  _427
REMARK  181  A    between atoms: _429  and  _431
REMARK  182  A    between atoms: _431  and  _432
REMARK  183  A    between atoms: _431  and  _434
REMARK  184  A    between atoms: _434  and  _435
REMARK  185  A    between atoms: _438  and  _440
REMARK  186  A    between atoms: _440  and  _441
REMARK  187  A    between atoms: _440  and  _443
REMARK  188  A    between atoms: _443  and  _444
REMARK  189  A    between atoms: _444  and  _445
REMARK  190  A    between atoms: _447  and  _449
REMARK  191  A    between atoms: _449  and  _450
REMARK  192  A    between atoms: _449  and  _452
REMARK  193  A    between atoms: _452  and  _453
REMARK  194  A    between atoms: _458  and  _460
REMARK  195  A    between atoms: _460  and  _461
REMARK  196  A    between atoms: _460  and  _463
REMARK  197  A    between atoms: _463  and  _464
REMARK  198  A    between atoms: _464  and  _465
REMARK  199  A    between atoms: _468  and  _470
REMARK  200  A    between atoms: _470  and  _471
REMARK  201  A    between atoms: _470  and  _473
REMARK  202  A    between atoms: _473  and  _474
REMARK  203  A    between atoms: _479  and  _480
REMARK  204  A    between atoms: _482  and  _484
REMARK  205  A    between atoms: _484  and  _485
REMARK  206  A    between atoms: _484  and  _487
REMARK  207  A    between atoms: _487  and  _488
REMARK  208  A    between atoms: _491  and  _493
REMARK  209  A    between atoms: _493  and  _494
REMARK  210  A    between atoms: _493  and  _496
REMARK  211  A    between atoms: _496  and  _497
REMARK  212  A    between atoms: _497  and  _498
REMARK  213  A    between atoms: _498  and  _499
REMARK  214  A    between atoms: _499  and  _500
REMARK  215  A    between atoms: _504  and  _506
REMARK  216  A    between atoms: _506  and  _507
REMARK  217  A    between atoms: _509  and  _511
REMARK  218  A    between atoms: _511  and  _512
REMARK  219  A    between atoms: _511  and  _514
REMARK  220  A    between atoms: _514  and  _515
REMARK  221  A    between atoms: _520  and  _521
REMARK  222  A    between atoms: _523  and  _525
REMARK  223  A    between atoms: _525  and  _526
REMARK  224  A    between atoms: _528  and  _530
REMARK  225  A    between atoms: _530  and  _531
REMARK  226  A    between atoms: _530  and  _533
REMARK  227  A    between atoms: _533  and  _534
REMARK  228  A    between atoms: _534  and  _535
REMARK  229  A    between atoms: _535  and  _536
REMARK  230  A    between atoms: _536  and  _537
REMARK  231  A    between atoms: _541  and  _543
REMARK  232  A    between atoms: _543  and  _544
REMARK  233  A    between atoms: _543  and  _546
REMARK  234  A    between atoms: _546  and  _547
REMARK                            x       y       z     vdW  Elec       q    Type
REMARK                         _______ _______ _______ _____ _____    ______ ____
ROOT
ATOM      1  O   HOH     1       2.517  28.418  17.179  0.00  0.00    +0.000 OA
ENDROOT
TORSDOF 0
REMARK  Name = ../refined-set-2016/2p2a/2p2a_pocket.pdb
REMARK  234 active torsions:
REMARK  status: ('A' for Active; 'I' for Inactive)
REMARK    1  A    between atoms: _1  and  _3
REMARK    2  A    between atoms: _3  and  _4
REMARK    3  A    between atoms: _3  and  _6
REMARK    4  A    between atoms: _6  and  _7
REMARK    5  A    between atoms: _10  and  _12
REMARK    6  A    between atoms: _12  and  _13
REMARK    7  A    between atoms: _12  and  _15
REMARK    8  A    between atoms: _15  and  _16
REMARK    9  A    between atoms: _19  and  _21
REMARK   10  A    between atoms: _21  and  _22
REMARK   11  A    between atoms: _21  and  _24
REMARK   12  A    between atoms: _24  and  _25
REMARK   13  A    between atoms: _25  and  _26
REMARK   14  A    between atoms: _29  and  _31
REMARK   15  A    between atoms: _31  and  _32
REMARK   16  A    between atoms: _31  and  _34
REMARK   17  A    between atoms: _34  and  _35
REMARK   18  A    between atoms: _38  and  _39
REMARK   19  A    between atoms: _44  and  _46
REMARK   20  A    between atoms: _46  and  _47
REMARK   21  A    between atoms: _46  and  _49
REMARK   22  A    between atoms: _49  and  _50
REMARK   23  A    between atoms: _55  and  _56
REMARK   24  A    between atoms: _58  and  _60
REMARK   25  A    between atoms: _60  and  _61
REMARK   26  A    between atoms: _60  and  _63
REMARK   27  A    between atoms: _66  and  _68
REMARK   28  A    between atoms: _68  and  _69
REMARK   29  A    between atoms: _68  and  _71
REMARK   30  A    between atoms: _71  and  _72
REMARK   31  A    between atoms: _72  and  _73
REMARK   32  A    between atoms: _73  and  _74
REMARK   33  A    between atoms: _74  and  _75
REMARK   34  A    between atoms: _79  and  _81
REMARK   35  A    between atoms: _81  and  _82
REMARK   36  A    between atoms: _81  and  _84
REMARK   37  A    between atoms: _84  and  _85
REMARK   38  A    between atoms: _90  and  _91
REMARK   39  A    between atoms: _93  and  _95
REMARK   40  A    between atoms: _95  and  _96
REMARK   41  A    between atoms: _98  and  _100
REMARK   42  A    between atoms: _100  and  _101
REMARK   43  A    between atoms: _104  and  _106
REMARK   44  A    between atoms: _106  and  _107
REMARK   45  A    between atoms: _106  and  _109
REMARK   46  A    between atoms: _109  and  _110
REMARK   47  A    between atoms: _110  and  _111
REMARK   48  A    between atoms: _113  and  _115
REMARK   49  A    between atoms: _115  and  _116
REMARK   50  A    between atoms: _115  and  _118
REMARK   51  A    between atoms: _121  and  _123
REMARK   52  A    between atoms: _123  and  _124
REMARK   53  A    between atoms: _128  and  _129
REMARK   54  A    between atoms: _134  and  _136
REMARK   55  A    between atoms: _136  and  _137
REMARK   56  A    between atoms: _136  and  _139
REMARK   57  A    between atoms: _139  and  _140
REMARK   58  A    between atoms: _143  and  _145
REMARK   59  A    between atoms: _145  and  _146
REMARK   60  A    between atoms: _145  and  _148
REMARK   61  A    between atoms: _148  and  _149
REMARK   62  A    between atoms: _152  and  _154
REMARK   63  A    between atoms: _154  and  _155
REMARK   64  A    between atoms: _154  and  _157
REMARK   65  A    between atoms: _157  and  _158
REMARK   66  A    between atoms: _161  and  _163
REMARK   67  A    between atoms: _163  and  _164
REMARK   68  A    between atoms: _163  and  _166
REMARK   69  A    between atoms: _166  and  _167
REMARK   70  A    between atoms: _170  and  _172
REMARK   71  A    between atoms: _172  and  _173
REMARK   72  A    between atoms: _172  and  _175
REMARK   73  A    between atoms: _175  and  _176
REMARK   74  A    between atoms: _176  and  _177
REMARK   75  A    between atoms: _177  and  _178
REMARK   76  A    between atoms: _187  and  _189
REMARK   77  A    between atoms: _189  and  _190
REMARK   78  A    between atoms: _189  and  _192
REMARK   79  A    between atoms: _192  and  _193
REMARK   80  A    between atoms: _199  and  _201
REMARK   81  A    between atoms: _201  and  _202
REMARK   82  A    between atoms: _201  and  _204
REMARK   83  A    between atoms: _204  and  _205
REMARK   84  A    between atoms: _205  and  _206
REMARK   85  A    between atoms: _208  and  _210
REMARK   86  A    between atoms: _210  and  _211
REMARK   87  A    between atoms: _210  and  _213
REMARK   88  A    between atoms: _213  and  _214
REMARK   89  A    between atoms: _217  and  _219
REMARK   90  A    between atoms: _219  and  _220
REMARK   91  A    between atoms: _222  and  _224
REMARK   92  A    between atoms: _224  and  _225
REMARK   93  A    between atoms: _224  and  _227
REMARK   94  A    between atoms: _227  and  _228
REMARK   95  A    between atoms: _231  and  _233
REMARK   96  A    between atoms: _233  and  _234
REMARK   97  A    between atoms: _233  and  _236
REMARK   98  A    between atoms: _236  and  _237
REMARK   99  A    between atoms: _239  and  _241
REMARK  100  A    between atoms: _241  and  _242
REMARK  101  A    between atoms: _244  and  _246
REMARK  102  A    between atoms: _246  and  _247
REMARK  103  A    between atoms: _246  and  _249
REMARK  104  A    between atoms: _249  and  _250
REMARK  105  A    between atoms: _253  and  _255
REMARK  106  A    between atoms: _255  and  _256
REMARK  107  A    between atoms: _255  and  _258
REMARK  108  A    between atoms: _258  and  _259
REMARK  109  A    between atoms: _262  and  _264
REMARK  110  A    between atoms: _264  and  _265
REMARK  111  A    between atoms: _264  and  _267
REMARK  112  A    between atoms: _267  and  _268
REMARK  113  A    between atoms: _271  and  _273
REMARK  114  A    between atoms: _273  and  _274
REMARK  115  A    between atoms: _273  and  _276
REMARK  116  A    between atoms: _276  and  _277
REMARK  117  A    between atoms: _279  and  _281
REMARK  118  A    between atoms: _281  and  _282
REMARK  119  A    between atoms: _284  and  _286
REMARK  120  A    between atoms: _286  and  _287
REMARK  121  A    between atoms: _286  and  _289
REMARK  122  A    between atoms: _289  and  _290
REMARK  123  A    between atoms: _292  and  _294
REMARK  124  A    between atoms: _294  and  _295
REMARK  125  A    between atoms: _294  and  _297
REMARK  126  A    between atoms: _297  and  _298
REMARK  127  A    between atoms: _301  and  _303
REMARK  128  A    between atoms: _303  and  _304
REMARK  129  A    between atoms: _303  and  _306
REMARK  130  A    between atoms: _306  and  _307
REMARK  131  A    between atoms: _307  and  _308
REMARK  132  A    between atoms: _308  and  _309
REMARK  133  A    between atoms: _309  and  _310
REMARK  134  A    between atoms: _314  and  _316
REMARK  135  A    between atoms: _316  and  _317
REMARK  136  A    between atoms: _316  and  _319
REMARK  137  A    between atoms: _319  and  _320
REMARK  138  A    between atoms: _320  and  _321
REMARK  139  A    between atoms: _324  and  _326
REMARK  140  A    between atoms: _326  and  _327
REMARK  141  A    between atoms: _326  and  _329
REMARK  142  A    between atoms: _329  and  _330
REMARK  143  A    between atoms: _336  and  _338
REMARK  144  A    between atoms: _338  and  _339
REMARK  145  A    between atoms: _338  and  _341
REMARK  146  A    between atoms: _341  and  _342
REMARK  147  A    between atoms: _348  and  _350
REMARK  148  A    between atoms: _350  and  _351
REMARK  149  A    between atoms: _350  and  _353
REMARK  150  A    between atoms: _356  and  _358
REMARK  151  A    between atoms: _358  and  _359
REMARK  152  A    between atoms: _358  and  _361
REMARK  153  A    between atoms: _361  and  _362
REMARK  154  A    between atoms: _365  and  _367
REMARK  155  A    between atoms: _367  and  _368
REMARK  156  A    between atoms: _371  and  _373
REMARK  157  A    between atoms: _373  and  _374
REMARK  158  A    between atoms: _373  and  _376
REMARK  159  A    between atoms: _379  and  _381
REMARK  160  A    between atoms: _381  and  _382
REMARK  161  A    between atoms: _381  and  _384
REMARK  162  A    between atoms: _384  and  _385
REMARK  163  A    between atoms: _390  and  _391
REMARK  164  A    between atoms: _393  and  _395
REMARK  165  A    between atoms: _395  and  _396
REMARK  166  A    between atoms: _395  and  _398
REMARK  167  A    between atoms: _398  and  _399
REMARK  168  A    between atoms: _402  and  _404
REMARK  169  A    between atoms: _404  and  _405
REMARK  170  A    between atoms: _404  and  _407
REMARK  171  A    between atoms: _407  and  _408
REMARK  172  A    between atoms: _411  and  _413
REMARK  173  A    between atoms: _413  and  _414
REMARK  174  A    between atoms: _413  and  _416
REMARK  175  A    between atoms: _416  and  _417
REMARK  176  A    between atoms: _417  and  _418
REMARK  177  A    between atoms: _421  and  _423
REMARK  178  A    between atoms: _423  and  _424
REMARK  179  A    between atoms: _423  and  _426
REMARK  180  A    between atoms: _426  and  _427
REMARK  181  A    between atoms: _429  and  _431
REMARK  182  A    between atoms: _431  and  _432
REMARK  183  A    between atoms: _431  and  _434
REMARK  184  A    between atoms: _434  and  _435
REMARK  185  A    between atoms: _438  and  _440
REMARK  186  A    between atoms: _440  and  _441
REMARK  187  A    between atoms: _440  and  _443
REMARK  188  A    between atoms: _443  and  _444
REMARK  189  A    between atoms: _444  and  _445
REMARK  190  A    between atoms: _447  and  _449
REMARK  191  A    between atoms: _449  and  _450
REMARK  192  A    between atoms: _449  and  _452
REMARK  193  A    between atoms: _452  and  _453
REMARK  194  A    between atoms: _458  and  _460
REMARK  195  A    between atoms: _460  and  _461
REMARK  196  A    between atoms: _460  and  _463
REMARK  197  A    between atoms: _463  and  _464
REMARK  198  A    between atoms: _464  and  _465
REMARK  199  A    between atoms: _468  and  _470
REMARK  200  A    between atoms: _470  and  _471
REMARK  201  A    between atoms: _470  and  _473
REMARK  202  A    between atoms: _473  and  _474
REMARK  203  A    between atoms: _479  and  _480
REMARK  204  A    between atoms: _482  and  _484
REMARK  205  A    between atoms: _484  and  _485
REMARK  206  A    between atoms: _484  and  _487
REMARK  207  A    between atoms: _487  and  _488
REMARK  208  A    between atoms: _491  and  _493
REMARK  209  A    between atoms: _493  and  _494
REMARK  210  A    between atoms: _493  and  _496
REMARK  211  A    between atoms: _496  and  _497
REMARK  212  A    between atoms: _497  and  _498
REMARK  213  A    between atoms: _498  and  _499
REMARK  214  A    between atoms: _499  and  _500
REMARK  215  A    between atoms: _504  and  _506
REMARK  216  A    between atoms: _506  and  _507
REMARK  217  A    between atoms: _509  and  _511
REMARK  218  A    between atoms: _511  and  _512
REMARK  219  A    between atoms: _511  and  _514
REMARK  220  A    between atoms: _514  and  _515
REMARK  221  A    between atoms: _520  and  _521
REMARK  222  A    between atoms: _523  and  _525
REMARK  223  A    between atoms: _525  and  _526
REMARK  224  A    between atoms: _528  and  _530
REMARK  225  A    between atoms: _530  and  _531
REMARK  226  A    between atoms: _530  and  _533
REMARK  227  A    between atoms: _533  and  _534
REMARK  228  A    between atoms: _534  and  _535
REMARK  229  A    between atoms: _535  and  _536
REMARK  230  A    between atoms: _536  and  _537
REMARK  231  A    between atoms: _541  and  _543
REMARK  232  A    between atoms: _543  and  _544
REMARK  233  A    between atoms: _543  and  _546
REMARK  234  A    between atoms: _546  and  _547
REMARK                            x       y       z     vdW  Elec       q    Type
REMARK                         _______ _______ _______ _____ _____    ______ ____
ROOT
ATOM      1  O   HOH     1       9.184  35.751  24.799  0.00  0.00    +0.000 OA
ENDROOT
TORSDOF 0
REMARK  Name = ../refined-set-2016/2p2a/2p2a_pocket.pdb
REMARK  234 active torsions:
REMARK  status: ('A' for Active; 'I' for Inactive)
REMARK    1  A    between atoms: _1  and  _3
REMARK    2  A    between atoms: _3  and  _4
REMARK    3  A    between atoms: _3  and  _6
REMARK    4  A    between atoms: _6  and  _7
REMARK    5  A    between atoms: _10  and  _12
REMARK    6  A    between atoms: _12  and  _13
REMARK    7  A    between atoms: _12  and  _15
REMARK    8  A    between atoms: _15  and  _16
REMARK    9  A    between atoms: _19  and  _21
REMARK   10  A    between atoms: _21  and  _22
REMARK   11  A    between atoms: _21  and  _24
REMARK   12  A    between atoms: _24  and  _25
REMARK   13  A    between atoms: _25  and  _26
REMARK   14  A    between atoms: _29  and  _31
REMARK   15  A    between atoms: _31  and  _32
REMARK   16  A    between atoms: _31  and  _34
REMARK   17  A    between atoms: _34  and  _35
REMARK   18  A    between atoms: _38  and  _39
REMARK   19  A    between atoms: _44  and  _46
REMARK   20  A    between atoms: _46  and  _47
REMARK   21  A    between atoms: _46  and  _49
REMARK   22  A    between atoms: _49  and  _50
REMARK   23  A    between atoms: _55  and  _56
REMARK   24  A    between atoms: _58  and  _60
REMARK   25  A    between atoms: _60  and  _61
REMARK   26  A    between atoms: _60  and  _63
REMARK   27  A    between atoms: _66  and  _68
REMARK   28  A    between atoms: _68  and  _69
REMARK   29  A    between atoms: _68  and  _71
REMARK   30  A    between atoms: _71  and  _72
REMARK   31  A    between atoms: _72  and  _73
REMARK   32  A    between atoms: _73  and  _74
REMARK   33  A    between atoms: _74  and  _75
REMARK   34  A    between atoms: _79  and  _81
REMARK   35  A    between atoms: _81  and  _82
REMARK   36  A    between atoms: _81  and  _84
REMARK   37  A    between atoms: _84  and  _85
REMARK   38  A    between atoms: _90  and  _91
REMARK   39  A    between atoms: _93  and  _95
REMARK   40  A    between atoms: _95  and  _96
REMARK   41  A    between atoms: _98  and  _100
REMARK   42  A    between atoms: _100  and  _101
REMARK   43  A    between atoms: _104  and  _106
REMARK   44  A    between atoms: _106  and  _107
REMARK   45  A    between atoms: _106  and  _109
REMARK   46  A    between atoms: _109  and  _110
REMARK   47  A    between atoms: _110  and  _111
REMARK   48  A    between atoms: _113  and  _115
REMARK   49  A    between atoms: _115  and  _116
REMARK   50  A    between atoms: _115  and  _118
REMARK   51  A    between atoms: _121  and  _123
REMARK   52  A    between atoms: _123  and  _124
REMARK   53  A    between atoms: _128  and  _129
REMARK   54  A    between atoms: _134  and  _136
REMARK   55  A    between atoms: _136  and  _137
REMARK   56  A    between atoms: _136  and  _139
REMARK   57  A    between atoms: _139  and  _140
REMARK   58  A    between atoms: _143  and  _145
REMARK   59  A    between atoms: _145  and  _146
REMARK   60  A    between atoms: _145  and  _148
REMARK   61  A    between atoms: _148  and  _149
REMARK   62  A    between atoms: _152  and  _154
REMARK   63  A    between atoms: _154  and  _155
REMARK   64  A    between atoms: _154  and  _157
REMARK   65  A    between atoms: _157  and  _158
REMARK   66  A    between atoms: _161  and  _163
REMARK   67  A    between atoms: _163  and  _164
REMARK   68  A    between atoms: _163  and  _166
REMARK   69  A    between atoms: _166  and  _167
REMARK   70  A    between atoms: _170  and  _172
REMARK   71  A    between atoms: _172  and  _173
REMARK   72  A    between atoms: _172  and  _175
REMARK   73  A    between atoms: _175  and  _176
REMARK   74  A    between atoms: _176  and  _177
REMARK   75  A    between atoms: _177  and  _178
REMARK   76  A    between atoms: _187  and  _189
REMARK   77  A    between atoms: _189  and  _190
REMARK   78  A    between atoms: _189  and  _192
REMARK   79  A    between atoms: _192  and  _193
REMARK   80  A    between atoms: _199  and  _201
REMARK   81  A    between atoms: _201  and  _202
REMARK   82  A    between atoms: _201  and  _204
REMARK   83  A    between atoms: _204  and  _205
REMARK   84  A    between atoms: _205  and  _206
REMARK   85  A    between atoms: _208  and  _210
REMARK   86  A    between atoms: _210  and  _211
REMARK   87  A    between atoms: _210  and  _213
REMARK   88  A    between atoms: _213  and  _214
REMARK   89  A    between atoms: _217  and  _219
REMARK   90  A    between atoms: _219  and  _220
REMARK   91  A    between atoms: _222  and  _224
REMARK   92  A    between atoms: _224  and  _225
REMARK   93  A    between atoms: _224  and  _227
REMARK   94  A    between atoms: _227  and  _228
REMARK   95  A    between atoms: _231  and  _233
REMARK   96  A    between atoms: _233  and  _234
REMARK   97  A    between atoms: _233  and  _236
REMARK   98  A    between atoms: _236  and  _237
REMARK   99  A    between atoms: _239  and  _241
REMARK  100  A    between atoms: _241  and  _242
REMARK  101  A    between atoms: _244  and  _246
REMARK  102  A    between atoms: _246  and  _247
REMARK  103  A    between atoms: _246  and  _249
REMARK  104  A    between atoms: _249  and  _250
REMARK  105  A    between atoms: _253  and  _255
REMARK  106  A    between atoms: _255  and  _256
REMARK  107  A    between atoms: _255  and  _258
REMARK  108  A    between atoms: _258  and  _259
REMARK  109  A    between atoms: _262  and  _264
REMARK  110  A    between atoms: _264  and  _265
REMARK  111  A    between atoms: _264  and  _267
REMARK  112  A    between atoms: _267  and  _268
REMARK  113  A    between atoms: _271  and  _273
REMARK  114  A    between atoms: _273  and  _274
REMARK  115  A    between atoms: _273  and  _276
REMARK  116  A    between atoms: _276  and  _277
REMARK  117  A    between atoms: _279  and  _281
REMARK  118  A    between atoms: _281  and  _282
REMARK  119  A    between atoms: _284  and  _286
REMARK  120  A    between atoms: _286  and  _287
REMARK  121  A    between atoms: _286  and  _289
REMARK  122  A    between atoms: _289  and  _290
REMARK  123  A    between atoms: _292  and  _294
REMARK  124  A    between atoms: _294  and  _295
REMARK  125  A    between atoms: _294  and  _297
REMARK  126  A    between atoms: _297  and  _298
REMARK  127  A    between atoms: _301  and  _303
REMARK  128  A    between atoms: _303  and  _304
REMARK  129  A    between atoms: _303  and  _306
REMARK  130  A    between atoms: _306  and  _307
REMARK  131  A    between atoms: _307  and  _308
REMARK  132  A    between atoms: _308  and  _309
REMARK  133  A    between atoms: _309  and  _310
REMARK  134  A    between atoms: _314  and  _316
REMARK  135  A    between atoms: _316  and  _317
REMARK  136  A    between atoms: _316  and  _319
REMARK  137  A    between atoms: _319  and  _320
REMARK  138  A    between atoms: _320  and  _321
REMARK  139  A    between atoms: _324  and  _326
REMARK  140  A    between atoms: _326  and  _327
REMARK  141  A    between atoms: _326  and  _329
REMARK  142  A    between atoms: _329  and  _330
REMARK  143  A    between atoms: _336  and  _338
REMARK  144  A    between atoms: _338  and  _339
REMARK  145  A    between atoms: _338  and  _341
REMARK  146  A    between atoms: _341  and  _342
REMARK  147  A    between atoms: _348  and  _350
REMARK  148  A    between atoms: _350  and  _351
REMARK  149  A    between atoms: _350  and  _353
REMARK  150  A    between atoms: _356  and  _358
REMARK  151  A    between atoms: _358  and  _359
REMARK  152  A    between atoms: _358  and  _361
REMARK  153  A    between atoms: _361  and  _362
REMARK  154  A    between atoms: _365  and  _367
REMARK  155  A    between atoms: _367  and  _368
REMARK  156  A    between atoms: _371  and  _373
REMARK  157  A    between atoms: _373  and  _374
REMARK  158  A    between atoms: _373  and  _376
REMARK  159  A    between atoms: _379  and  _381
REMARK  160  A    between atoms: _381  and  _382
REMARK  161  A    between atoms: _381  and  _384
REMARK  162  A    between atoms: _384  and  _385
REMARK  163  A    between atoms: _390  and  _391
REMARK  164  A    between atoms: _393  and  _395
REMARK  165  A    between atoms: _395  and  _396
REMARK  166  A    between atoms: _395  and  _398
REMARK  167  A    between atoms: _398  and  _399
REMARK  168  A    between atoms: _402  and  _404
REMARK  169  A    between atoms: _404  and  _405
REMARK  170  A    between atoms: _404  and  _407
REMARK  171  A    between atoms: _407  and  _408
REMARK  172  A    between atoms: _411  and  _413
REMARK  173  A    between atoms: _413  and  _414
REMARK  174  A    between atoms: _413  and  _416
REMARK  175  A    between atoms: _416  and  _417
REMARK  176  A    between atoms: _417  and  _418
REMARK  177  A    between atoms: _421  and  _423
REMARK  178  A    between atoms: _423  and  _424
REMARK  179  A    between atoms: _423  and  _426
REMARK  180  A    between atoms: _426  and  _427
REMARK  181  A    between atoms: _429  and  _431
REMARK  182  A    between atoms: _431  and  _432
REMARK  183  A    between atoms: _431  and  _434
REMARK  184  A    between atoms: _434  and  _435
REMARK  185  A    between atoms: _438  and  _440
REMARK  186  A    between atoms: _440  and  _441
REMARK  187  A    between atoms: _440  and  _443
REMARK  188  A    between atoms: _443  and  _444
REMARK  189  A    between atoms: _444  and  _445
REMARK  190  A    between atoms: _447  and  _449
REMARK  191  A    between atoms: _449  and  _450
REMARK  192  A    between atoms: _449  and  _452
REMARK  193  A    between atoms: _452  and  _453
REMARK  194  A    between atoms: _458  and  _460
REMARK  195  A    between atoms: _460  and  _461
REMARK  196  A    between atoms: _460  and  _463
REMARK  197  A    between atoms: _463  and  _464
REMARK  198  A    between atoms: _464  and  _465
REMARK  199  A    between atoms: _468  and  _470
REMARK  200  A    between atoms: _470  and  _471
REMARK  201  A    between atoms: _470  and  _473
REMARK  202  A    between atoms: _473  and  _474
REMARK  203  A    between atoms: _479  and  _480
REMARK  204  A    between atoms: _482  and  _484
REMARK  205  A    between atoms: _484  and  _485
REMARK  206  A    between atoms: _484  and  _487
REMARK  207  A    between atoms: _487  and  _488
REMARK  208  A    between atoms: _491  and  _493
REMARK  209  A    between atoms: _493  and  _494
REMARK  210  A    between atoms: _493  and  _496
REMARK  211  A    between atoms: _496  and  _497
REMARK  212  A    between atoms: _497  and  _498
REMARK  213  A    between atoms: _498  and  _499
REMARK  214  A    between atoms: _499  and  _500
REMARK  215  A    between atoms: _504  and  _506
REMARK  216  A    between atoms: _506  and  _507
REMARK  217  A    between atoms: _509  and  _511
REMARK  218  A    between atoms: _511  and  _512
REMARK  219  A    between atoms: _511  and  _514
REMARK  220  A    between atoms: _514  and  _515
REMARK  221  A    between atoms: _520  and  _521
REMARK  222  A    between atoms: _523  and  _525
REMARK  223  A    between atoms: _525  and  _526
REMARK  224  A    between atoms: _528  and  _530
REMARK  225  A    between atoms: _530  and  _531
REMARK  226  A    between atoms: _530  and  _533
REMARK  227  A    between atoms: _533  and  _534
REMARK  228  A    between atoms: _534  and  _535
REMARK  229  A    between atoms: _535  and  _536
REMARK  230  A    between atoms: _536  and  _537
REMARK  231  A    between atoms: _541  and  _543
REMARK  232  A    between atoms: _543  and  _544
REMARK  233  A    between atoms: _543  and  _546
REMARK  234  A    between atoms: _546  and  _547
REMARK                            x       y       z     vdW  Elec       q    Type
REMARK                         _______ _______ _______ _____ _____    ______ ____
ROOT
ATOM      1  O   HOH     1      -0.010  21.463  15.734  0.00  0.00    +0.000 OA
ENDROOT
TORSDOF 0
REMARK  Name = ../refined-set-2016/2p2a/2p2a_pocket.pdb
REMARK  234 active torsions:
REMARK  status: ('A' for Active; 'I' for Inactive)
REMARK    1  A    between atoms: _1  and  _3
REMARK    2  A    between atoms: _3  and  _4
REMARK    3  A    between atoms: _3  and  _6
REMARK    4  A    between atoms: _6  and  _7
REMARK    5  A    between atoms: _10  and  _12
REMARK    6  A    between atoms: _12  and  _13
REMARK    7  A    between atoms: _12  and  _15
REMARK    8  A    between atoms: _15  and  _16
REMARK    9  A    between atoms: _19  and  _21
REMARK   10  A    between atoms: _21  and  _22
REMARK   11  A    between atoms: _21  and  _24
REMARK   12  A    between atoms: _24  and  _25
REMARK   13  A    between atoms: _25  and  _26
REMARK   14  A    between atoms: _29  and  _31
REMARK   15  A    between atoms: _31  and  _32
REMARK   16  A    between atoms: _31  and  _34
REMARK   17  A    between atoms: _34  and  _35
REMARK   18  A    between atoms: _38  and  _39
REMARK   19  A    between atoms: _44  and  _46
REMARK   20  A    between atoms: _46  and  _47
REMARK   21  A    between atoms: _46  and  _49
REMARK   22  A    between atoms: _49  and  _50
REMARK   23  A    between atoms: _55  and  _56
REMARK   24  A    between atoms: _58  and  _60
REMARK   25  A    between atoms: _60  and  _61
REMARK   26  A    between atoms: _60  and  _63
REMARK   27  A    between atoms: _66  and  _68
REMARK   28  A    between atoms: _68  and  _69
REMARK   29  A    between atoms: _68  and  _71
REMARK   30  A    between atoms: _71  and  _72
REMARK   31  A    between atoms: _72  and  _73
REMARK   32  A    between atoms: _73  and  _74
REMARK   33  A    between atoms: _74  and  _75
REMARK   34  A    between atoms: _79  and  _81
REMARK   35  A    between atoms: _81  and  _82
REMARK   36  A    between atoms: _81  and  _84
REMARK   37  A    between atoms: _84  and  _85
REMARK   38  A    between atoms: _90  and  _91
REMARK   39  A    between atoms: _93  and  _95
REMARK   40  A    between atoms: _95  and  _96
REMARK   41  A    between atoms: _98  and  _100
REMARK   42  A    between atoms: _100  and  _101
REMARK   43  A    between atoms: _104  and  _106
REMARK   44  A    between atoms: _106  and  _107
REMARK   45  A    between atoms: _106  and  _109
REMARK   46  A    between atoms: _109  and  _110
REMARK   47  A    between atoms: _110  and  _111
REMARK   48  A    between atoms: _113  and  _115
REMARK   49  A    between atoms: _115  and  _116
REMARK   50  A    between atoms: _115  and  _118
REMARK   51  A    between atoms: _121  and  _123
REMARK   52  A    between atoms: _123  and  _124
REMARK   53  A    between atoms: _128  and  _129
REMARK   54  A    between atoms: _134  and  _136
REMARK   55  A    between atoms: _136  and  _137
REMARK   56  A    between atoms: _136  and  _139
REMARK   57  A    between atoms: _139  and  _140
REMARK   58  A    between atoms: _143  and  _145
REMARK   59  A    between atoms: _145  and  _146
REMARK   60  A    between atoms: _145  and  _148
REMARK   61  A    between atoms: _148  and  _149
REMARK   62  A    between atoms: _152  and  _154
REMARK   63  A    between atoms: _154  and  _155
REMARK   64  A    between atoms: _154  and  _157
REMARK   65  A    between atoms: _157  and  _158
REMARK   66  A    between atoms: _161  and  _163
REMARK   67  A    between atoms: _163  and  _164
REMARK   68  A    between atoms: _163  and  _166
REMARK   69  A    between atoms: _166  and  _167
REMARK   70  A    between atoms: _170  and  _172
REMARK   71  A    between atoms: _172  and  _173
REMARK   72  A    between atoms: _172  and  _175
REMARK   73  A    between atoms: _175  and  _176
REMARK   74  A    between atoms: _176  and  _177
REMARK   75  A    between atoms: _177  and  _178
REMARK   76  A    between atoms: _187  and  _189
REMARK   77  A    between atoms: _189  and  _190
REMARK   78  A    between atoms: _189  and  _192
REMARK   79  A    between atoms: _192  and  _193
REMARK   80  A    between atoms: _199  and  _201
REMARK   81  A    between atoms: _201  and  _202
REMARK   82  A    between atoms: _201  and  _204
REMARK   83  A    between atoms: _204  and  _205
REMARK   84  A    between atoms: _205  and  _206
REMARK   85  A    between atoms: _208  and  _210
REMARK   86  A    between atoms: _210  and  _211
REMARK   87  A    between atoms: _210  and  _213
REMARK   88  A    between atoms: _213  and  _214
REMARK   89  A    between atoms: _217  and  _219
REMARK   90  A    between atoms: _219  and  _220
REMARK   91  A    between atoms: _222  and  _224
REMARK   92  A    between atoms: _224  and  _225
REMARK   93  A    between atoms: _224  and  _227
REMARK   94  A    between atoms: _227  and  _228
REMARK   95  A    between atoms: _231  and  _233
REMARK   96  A    between atoms: _233  and  _234
REMARK   97  A    between atoms: _233  and  _236
REMARK   98  A    between atoms: _236  and  _237
REMARK   99  A    between atoms: _239  and  _241
REMARK  100  A    between atoms: _241  and  _242
REMARK  101  A    between atoms: _244  and  _246
REMARK  102  A    between atoms: _246  and  _247
REMARK  103  A    between atoms: _246  and  _249
REMARK  104  A    between atoms: _249  and  _250
REMARK  105  A    between atoms: _253  and  _255
REMARK  106  A    between atoms: _255  and  _256
REMARK  107  A    between atoms: _255  and  _258
REMARK  108  A    between atoms: _258  and  _259
REMARK  109  A    between atoms: _262  and  _264
REMARK  110  A    between atoms: _264  and  _265
REMARK  111  A    between atoms: _264  and  _267
REMARK  112  A    between atoms: _267  and  _268
REMARK  113  A    between atoms: _271  and  _273
REMARK  114  A    between atoms: _273  and  _274
REMARK  115  A    between atoms: _273  and  _276
REMARK  116  A    between atoms: _276  and  _277
REMARK  117  A    between atoms: _279  and  _281
REMARK  118  A    between atoms: _281  and  _282
REMARK  119  A    between atoms: _284  and  _286
REMARK  120  A    between atoms: _286  and  _287
REMARK  121  A    between atoms: _286  and  _289
REMARK  122  A    between atoms: _289  and  _290
REMARK  123  A    between atoms: _292  and  _294
REMARK  124  A    between atoms: _294  and  _295
REMARK  125  A    between atoms: _294  and  _297
REMARK  126  A    between atoms: _297  and  _298
REMARK  127  A    between atoms: _301  and  _303
REMARK  128  A    between atoms: _303  and  _304
REMARK  129  A    between atoms: _303  and  _306
REMARK  130  A    between atoms: _306  and  _307
REMARK  131  A    between atoms: _307  and  _308
REMARK  132  A    between atoms: _308  and  _309
REMARK  133  A    between atoms: _309  and  _310
REMARK  134  A    between atoms: _314  and  _316
REMARK  135  A    between atoms: _316  and  _317
REMARK  136  A    between atoms: _316  and  _319
REMARK  137  A    between atoms: _319  and  _320
REMARK  138  A    between atoms: _320  and  _321
REMARK  139  A    between atoms: _324  and  _326
REMARK  140  A    between atoms: _326  and  _327
REMARK  141  A    between atoms: _326  and  _329
REMARK  142  A    between atoms: _329  and  _330
REMARK  143  A    between atoms: _336  and  _338
REMARK  144  A    between atoms: _338  and  _339
REMARK  145  A    between atoms: _338  and  _341
REMARK  146  A    between atoms: _341  and  _342
REMARK  147  A    between atoms: _348  and  _350
REMARK  148  A    between atoms: _350  and  _351
REMARK  149  A    between atoms: _350  and  _353
REMARK  150  A    between atoms: _356  and  _358
REMARK  151  A    between atoms: _358  and  _359
REMARK  152  A    between atoms: _358  and  _361
REMARK  153  A    between atoms: _361  and  _362
REMARK  154  A    between atoms: _365  and  _367
REMARK  155  A    between atoms: _367  and  _368
REMARK  156  A    between atoms: _371  and  _373
REMARK  157  A    between atoms: _373  and  _374
REMARK  158  A    between atoms: _373  and  _376
REMARK  159  A    between atoms: _379  and  _381
REMARK  160  A    between atoms: _381  and  _382
REMARK  161  A    between atoms: _381  and  _384
REMARK  162  A    between atoms: _384  and  _385
REMARK  163  A    between atoms: _390  and  _391
REMARK  164  A    between atoms: _393  and  _395
REMARK  165  A    between atoms: _395  and  _396
REMARK  166  A    between atoms: _395  and  _398
REMARK  167  A    between atoms: _398  and  _399
REMARK  168  A    between atoms: _402  and  _404
REMARK  169  A    between atoms: _404  and  _405
REMARK  170  A    between atoms: _404  and  _407
REMARK  171  A    between atoms: _407  and  _408
REMARK  172  A    between atoms: _411  and  _413
REMARK  173  A    between atoms: _413  and  _414
REMARK  174  A    between atoms: _413  and  _416
REMARK  175  A    between atoms: _416  and  _417
REMARK  176  A    between atoms: _417  and  _418
REMARK  177  A    between atoms: _421  and  _423
REMARK  178  A    between atoms: _423  and  _424
REMARK  179  A    between atoms: _423  and  _426
REMARK  180  A    between atoms: _426  and  _427
REMARK  181  A    between atoms: _429  and  _431
REMARK  182  A    between atoms: _431  and  _432
REMARK  183  A    between atoms: _431  and  _434
REMARK  184  A    between atoms: _434  and  _435
REMARK  185  A    between atoms: _438  and  _440
REMARK  186  A    between atoms: _440  and  _441
REMARK  187  A    between atoms: _440  and  _443
REMARK  188  A    between atoms: _443  and  _444
REMARK  189  A    between atoms: _444  and  _445
REMARK  190  A    between atoms: _447  and  _449
REMARK  191  A    between atoms: _449  and  _450
REMARK  192  A    between atoms: _449  and  _452
REMARK  193  A    between atoms: _452  and  _453
REMARK  194  A    between atoms: _458  and  _460
REMARK  195  A    between atoms: _460  and  _461
REMARK  196  A    between atoms: _460  and  _463
REMARK  197  A    between atoms: _463  and  _464
REMARK  198  A    between atoms: _464  and  _465
REMARK  199  A    between atoms: _468  and  _470
REMARK  200  A    between atoms: _470  and  _471
REMARK  201  A    between atoms: _470  and  _473
REMARK  202  A    between atoms: _473  and  _474
REMARK  203  A    between atoms: _479  and  _480
REMARK  204  A    between atoms: _482  and  _484
REMARK  205  A    between atoms: _484  and  _485
REMARK  206  A    between atoms: _484  and  _487
REMARK  207  A    between atoms: _487  and  _488
REMARK  208  A    between atoms: _491  and  _493
REMARK  209  A    between atoms: _493  and  _494
REMARK  210  A    between atoms: _493  and  _496
REMARK  211  A    between atoms: _496  and  _497
REMARK  212  A    between atoms: _497  and  _498
REMARK  213  A    between atoms: _498  and  _499
REMARK  214  A    between atoms: _499  and  _500
REMARK  215  A    between atoms: _504  and  _506
REMARK  216  A    between atoms: _506  and  _507
REMARK  217  A    between atoms: _509  and  _511
REMARK  218  A    between atoms: _511  and  _512
REMARK  219  A    between atoms: _511  and  _514
REMARK  220  A    between atoms: _514  and  _515
REMARK  221  A    between atoms: _520  and  _521
REMARK  222  A    between atoms: _523  and  _525
REMARK  223  A    between atoms: _525  and  _526
REMARK  224  A    between atoms: _528  and  _530
REMARK  225  A    between atoms: _530  and  _531
REMARK  226  A    between atoms: _530  and  _533
REMARK  227  A    between atoms: _533  and  _534
REMARK  228  A    between atoms: _534  and  _535
REMARK  229  A    between atoms: _535  and  _536
REMARK  230  A    between atoms: _536  and  _537
REMARK  231  A    between atoms: _541  and  _543
REMARK  232  A    between atoms: _543  and  _544
REMARK  233  A    between atoms: _543  and  _546
REMARK  234  A    between atoms: _546  and  _547
REMARK                            x       y       z     vdW  Elec       q    Type
REMARK                         _______ _______ _______ _____ _____    ______ ____
ROOT
ATOM      1  O   HOH     1      14.029  32.556  17.375  0.00  0.00    +0.000 OA
ENDROOT
TORSDOF 0
REMARK  Name = ../refined-set-2016/2p2a/2p2a_pocket.pdb
REMARK  234 active torsions:
REMARK  status: ('A' for Active; 'I' for Inactive)
REMARK    1  A    between atoms: _1  and  _3
REMARK    2  A    between atoms: _3  and  _4
REMARK    3  A    between atoms: _3  and  _6
REMARK    4  A    between atoms: _6  and  _7
REMARK    5  A    between atoms: _10  and  _12
REMARK    6  A    between atoms: _12  and  _13
REMARK    7  A    between atoms: _12  and  _15
REMARK    8  A    between atoms: _15  and  _16
REMARK    9  A    between atoms: _19  and  _21
REMARK   10  A    between atoms: _21  and  _22
REMARK   11  A    between atoms: _21  and  _24
REMARK   12  A    between atoms: _24  and  _25
REMARK   13  A    between atoms: _25  and  _26
REMARK   14  A    between atoms: _29  and  _31
REMARK   15  A    between atoms: _31  and  _32
REMARK   16  A    between atoms: _31  and  _34
REMARK   17  A    between atoms: _34  and  _35
REMARK   18  A    between atoms: _38  and  _39
REMARK   19  A    between atoms: _44  and  _46
REMARK   20  A    between atoms: _46  and  _47
REMARK   21  A    between atoms: _46  and  _49
REMARK   22  A    between atoms: _49  and  _50
REMARK   23  A    between atoms: _55  and  _56
REMARK   24  A    between atoms: _58  and  _60
REMARK   25  A    between atoms: _60  and  _61
REMARK   26  A    between atoms: _60  and  _63
REMARK   27  A    between atoms: _66  and  _68
REMARK   28  A    between atoms: _68  and  _69
REMARK   29  A    between atoms: _68  and  _71
REMARK   30  A    between atoms: _71  and  _72
REMARK   31  A    between atoms: _72  and  _73
REMARK   32  A    between atoms: _73  and  _74
REMARK   33  A    between atoms: _74  and  _75
REMARK   34  A    between atoms: _79  and  _81
REMARK   35  A    between atoms: _81  and  _82
REMARK   36  A    between atoms: _81  and  _84
REMARK   37  A    between atoms: _84  and  _85
REMARK   38  A    between atoms: _90  and  _91
REMARK   39  A    between atoms: _93  and  _95
REMARK   40  A    between atoms: _95  and  _96
REMARK   41  A    between atoms: _98  and  _100
REMARK   42  A    between atoms: _100  and  _101
REMARK   43  A    between atoms: _104  and  _106
REMARK   44  A    between atoms: _106  and  _107
REMARK   45  A    between atoms: _106  and  _109
REMARK   46  A    between atoms: _109  and  _110
REMARK   47  A    between atoms: _110  and  _111
REMARK   48  A    between atoms: _113  and  _115
REMARK   49  A    between atoms: _115  and  _116
REMARK   50  A    between atoms: _115  and  _118
REMARK   51  A    between atoms: _121  and  _123
REMARK   52  A    between atoms: _123  and  _124
REMARK   53  A    between atoms: _128  and  _129
REMARK   54  A    between atoms: _134  and  _136
REMARK   55  A    between atoms: _136  and  _137
REMARK   56  A    between atoms: _136  and  _139
REMARK   57  A    between atoms: _139  and  _140
REMARK   58  A    between atoms: _143  and  _145
REMARK   59  A    between atoms: _145  and  _146
REMARK   60  A    between atoms: _145  and  _148
REMARK   61  A    between atoms: _148  and  _149
REMARK   62  A    between atoms: _152  and  _154
REMARK   63  A    between atoms: _154  and  _155
REMARK   64  A    between atoms: _154  and  _157
REMARK   65  A    between atoms: _157  and  _158
REMARK   66  A    between atoms: _161  and  _163
REMARK   67  A    between atoms: _163  and  _164
REMARK   68  A    between atoms: _163  and  _166
REMARK   69  A    between atoms: _166  and  _167
REMARK   70  A    between atoms: _170  and  _172
REMARK   71  A    between atoms: _172  and  _173
REMARK   72  A    between atoms: _172  and  _175
REMARK   73  A    between atoms: _175  and  _176
REMARK   74  A    between atoms: _176  and  _177
REMARK   75  A    between atoms: _177  and  _178
REMARK   76  A    between atoms: _187  and  _189
REMARK   77  A    between atoms: _189  and  _190
REMARK   78  A    between atoms: _189  and  _192
REMARK   79  A    between atoms: _192  and  _193
REMARK   80  A    between atoms: _199  and  _201
REMARK   81  A    between atoms: _201  and  _202
REMARK   82  A    between atoms: _201  and  _204
REMARK   83  A    between atoms: _204  and  _205
REMARK   84  A    between atoms: _205  and  _206
REMARK   85  A    between atoms: _208  and  _210
REMARK   86  A    between atoms: _210  and  _211
REMARK   87  A    between atoms: _210  and  _213
REMARK   88  A    between atoms: _213  and  _214
REMARK   89  A    between atoms: _217  and  _219
REMARK   90  A    between atoms: _219  and  _220
REMARK   91  A    between atoms: _222  and  _224
REMARK   92  A    between atoms: _224  and  _225
REMARK   93  A    between atoms: _224  and  _227
REMARK   94  A    between atoms: _227  and  _228
REMARK   95  A    between atoms: _231  and  _233
REMARK   96  A    between atoms: _233  and  _234
REMARK   97  A    between atoms: _233  and  _236
REMARK   98  A    between atoms: _236  and  _237
REMARK   99  A    between atoms: _239  and  _241
REMARK  100  A    between atoms: _241  and  _242
REMARK  101  A    between atoms: _244  and  _246
REMARK  102  A    between atoms: _246  and  _247
REMARK  103  A    between atoms: _246  and  _249
REMARK  104  A    between atoms: _249  and  _250
REMARK  105  A    between atoms: _253  and  _255
REMARK  106  A    between atoms: _255  and  _256
REMARK  107  A    between atoms: _255  and  _258
REMARK  108  A    between atoms: _258  and  _259
REMARK  109  A    between atoms: _262  and  _264
REMARK  110  A    between atoms: _264  and  _265
REMARK  111  A    between atoms: _264  and  _267
REMARK  112  A    between atoms: _267  and  _268
REMARK  113  A    between atoms: _271  and  _273
REMARK  114  A    between atoms: _273  and  _274
REMARK  115  A    between atoms: _273  and  _276
REMARK  116  A    between atoms: _276  and  _277
REMARK  117  A    between atoms: _279  and  _281
REMARK  118  A    between atoms: _281  and  _282
REMARK  119  A    between atoms: _284  and  _286
REMARK  120  A    between atoms: _286  and  _287
REMARK  121  A    between atoms: _286  and  _289
REMARK  122  A    between atoms: _289  and  _290
REMARK  123  A    between atoms: _292  and  _294
REMARK  124  A    between atoms: _294  and  _295
REMARK  125  A    between atoms: _294  and  _297
REMARK  126  A    between atoms: _297  and  _298
REMARK  127  A    between atoms: _301  and  _303
REMARK  128  A    between atoms: _303  and  _304
REMARK  129  A    between atoms: _303  and  _306
REMARK  130  A    between atoms: _306  and  _307
REMARK  131  A    between atoms: _307  and  _308
REMARK  132  A    between atoms: _308  and  _309
REMARK  133  A    between atoms: _309  and  _310
REMARK  134  A    between atoms: _314  and  _316
REMARK  135  A    between atoms: _316  and  _317
REMARK  136  A    between atoms: _316  and  _319
REMARK  137  A    between atoms: _319  and  _320
REMARK  138  A    between atoms: _320  and  _321
REMARK  139  A    between atoms: _324  and  _326
REMARK  140  A    between atoms: _326  and  _327
REMARK  141  A    between atoms: _326  and  _329
REMARK  142  A    between atoms: _329  and  _330
REMARK  143  A    between atoms: _336  and  _338
REMARK  144  A    between atoms: _338  and  _339
REMARK  145  A    between atoms: _338  and  _341
REMARK  146  A    between atoms: _341  and  _342
REMARK  147  A    between atoms: _348  and  _350
REMARK  148  A    between atoms: _350  and  _351
REMARK  149  A    between atoms: _350  and  _353
REMARK  150  A    between atoms: _356  and  _358
REMARK  151  A    between atoms: _358  and  _359
REMARK  152  A    between atoms: _358  and  _361
REMARK  153  A    between atoms: _361  and  _362
REMARK  154  A    between atoms: _365  and  _367
REMARK  155  A    between atoms: _367  and  _368
REMARK  156  A    between atoms: _371  and  _373
REMARK  157  A    between atoms: _373  and  _374
REMARK  158  A    between atoms: _373  and  _376
REMARK  159  A    between atoms: _379  and  _381
REMARK  160  A    between atoms: _381  and  _382
REMARK  161  A    between atoms: _381  and  _384
REMARK  162  A    between atoms: _384  and  _385
REMARK  163  A    between atoms: _390  and  _391
REMARK  164  A    between atoms: _393  and  _395
REMARK  165  A    between atoms: _395  and  _396
REMARK  166  A    between atoms: _395  and  _398
REMARK  167  A    between atoms: _398  and  _399
REMARK  168  A    between atoms: _402  and  _404
REMARK  169  A    between atoms: _404  and  _405
REMARK  170  A    between atoms: _404  and  _407
REMARK  171  A    between atoms: _407  and  _408
REMARK  172  A    between atoms: _411  and  _413
REMARK  173  A    between atoms: _413  and  _414
REMARK  174  A    between atoms: _413  and  _416
REMARK  175  A    between atoms: _416  and  _417
REMARK  176  A    between atoms: _417  and  _418
REMARK  177  A    between atoms: _421  and  _423
REMARK  178  A    between atoms: _423  and  _424
REMARK  179  A    between atoms: _423  and  _426
REMARK  180  A    between atoms: _426  and  _427
REMARK  181  A    between atoms: _429  and  _431
REMARK  182  A    between atoms: _431  and  _432
REMARK  183  A    between atoms: _431  and  _434
REMARK  184  A    between atoms: _434  and  _435
REMARK  185  A    between atoms: _438  and  _440
REMARK  186  A    between atoms: _440  and  _441
REMARK  187  A    between atoms: _440  and  _443
REMARK  188  A    between atoms: _443  and  _444
REMARK  189  A    between atoms: _444  and  _445
REMARK  190  A    between atoms: _447  and  _449
REMARK  191  A    between atoms: _449  and  _450
REMARK  192  A    between atoms: _449  and  _452
REMARK  193  A    between atoms: _452  and  _453
REMARK  194  A    between atoms: _458  and  _460
REMARK  195  A    between atoms: _460  and  _461
REMARK  196  A    between atoms: _460  and  _463
REMARK  197  A    between atoms: _463  and  _464
REMARK  198  A    between atoms: _464  and  _465
REMARK  199  A    between atoms: _468  and  _470
REMARK  200  A    between atoms: _470  and  _471
REMARK  201  A    between atoms: _470  and  _473
REMARK  202  A    between atoms: _473  and  _474
REMARK  203  A    between atoms: _479  and  _480
REMARK  204  A    between atoms: _482  and  _484
REMARK  205  A    between atoms: _484  and  _485
REMARK  206  A    between atoms: _484  and  _487
REMARK  207  A    between atoms: _487  and  _488
REMARK  208  A    between atoms: _491  and  _493
REMARK  209  A    between atoms: _493  and  _494
REMARK  210  A    between atoms: _493  and  _496
REMARK  211  A    between atoms: _496  and  _497
REMARK  212  A    between atoms: _497  and  _498
REMARK  213  A    between atoms: _498  and  _499
REMARK  214  A    between atoms: _499  and  _500
REMARK  215  A    between atoms: _504  and  _506
REMARK  216  A    between atoms: _506  and  _507
REMARK  217  A    between atoms: _509  and  _511
REMARK  218  A    between atoms: _511  and  _512
REMARK  219  A    between atoms: _511  and  _514
REMARK  220  A    between atoms: _514  and  _515
REMARK  221  A    between atoms: _520  and  _521
REMARK  222  A    between atoms: _523  and  _525
REMARK  223  A    between atoms: _525  and  _526
REMARK  224  A    between atoms: _528  and  _530
REMARK  225  A    between atoms: _530  and  _531
REMARK  226  A    between atoms: _530  and  _533
REMARK  227  A    between atoms: _533  and  _534
REMARK  228  A    between atoms: _534  and  _535
REMARK  229  A    between atoms: _535  and  _536
REMARK  230  A    between atoms: _536  and  _537
REMARK  231  A    between atoms: _541  and  _543
REMARK  232  A    between atoms: _543  and  _544
REMARK  233  A    between atoms: _543  and  _546
REMARK  234  A    between atoms: _546  and  _547
REMARK                            x       y       z     vdW  Elec       q    Type
REMARK                         _______ _______ _______ _____ _____    ______ ____
ROOT
ATOM      1  O   HOH     1       1.869  22.938  20.277  0.00  0.00    +0.000 OA
ENDROOT
TORSDOF 0
REMARK  Name = ../refined-set-2016/2p2a/2p2a_pocket.pdb
REMARK  234 active torsions:
REMARK  status: ('A' for Active; 'I' for Inactive)
REMARK    1  A    between atoms: _1  and  _3
REMARK    2  A    between atoms: _3  and  _4
REMARK    3  A    between atoms: _3  and  _6
REMARK    4  A    between atoms: _6  and  _7
REMARK    5  A    between atoms: _10  and  _12
REMARK    6  A    between atoms: _12  and  _13
REMARK    7  A    between atoms: _12  and  _15
REMARK    8  A    between atoms: _15  and  _16
REMARK    9  A    between atoms: _19  and  _21
REMARK   10  A    between atoms: _21  and  _22
REMARK   11  A    between atoms: _21  and  _24
REMARK   12  A    between atoms: _24  and  _25
REMARK   13  A    between atoms: _25  and  _26
REMARK   14  A    between atoms: _29  and  _31
REMARK   15  A    between atoms: _31  and  _32
REMARK   16  A    between atoms: _31  and  _34
REMARK   17  A    between atoms: _34  and  _35
REMARK   18  A    between atoms: _38  and  _39
REMARK   19  A    between atoms: _44  and  _46
REMARK   20  A    between atoms: _46  and  _47
REMARK   21  A    between atoms: _46  and  _49
REMARK   22  A    between atoms: _49  and  _50
REMARK   23  A    between atoms: _55  and  _56
REMARK   24  A    between atoms: _58  and  _60
REMARK   25  A    between atoms: _60  and  _61
REMARK   26  A    between atoms: _60  and  _63
REMARK   27  A    between atoms: _66  and  _68
REMARK   28  A    between atoms: _68  and  _69
REMARK   29  A    between atoms: _68  and  _71
REMARK   30  A    between atoms: _71  and  _72
REMARK   31  A    between atoms: _72  and  _73
REMARK   32  A    between atoms: _73  and  _74
REMARK   33  A    between atoms: _74  and  _75
REMARK   34  A    between atoms: _79  and  _81
REMARK   35  A    between atoms: _81  and  _82
REMARK   36  A    between atoms: _81  and  _84
REMARK   37  A    between atoms: _84  and  _85
REMARK   38  A    between atoms: _90  and  _91
REMARK   39  A    between atoms: _93  and  _95
REMARK   40  A    between atoms: _95  and  _96
REMARK   41  A    between atoms: _98  and  _100
REMARK   42  A    between atoms: _100  and  _101
REMARK   43  A    between atoms: _104  and  _106
REMARK   44  A    between atoms: _106  and  _107
REMARK   45  A    between atoms: _106  and  _109
REMARK   46  A    between atoms: _109  and  _110
REMARK   47  A    between atoms: _110  and  _111
REMARK   48  A    between atoms: _113  and  _115
REMARK   49  A    between atoms: _115  and  _116
REMARK   50  A    between atoms: _115  and  _118
REMARK   51  A    between atoms: _121  and  _123
REMARK   52  A    between atoms: _123  and  _124
REMARK   53  A    between atoms: _128  and  _129
REMARK   54  A    between atoms: _134  and  _136
REMARK   55  A    between atoms: _136  and  _137
REMARK   56  A    between atoms: _136  and  _139
REMARK   57  A    between atoms: _139  and  _140
REMARK   58  A    between atoms: _143  and  _145
REMARK   59  A    between atoms: _145  and  _146
REMARK   60  A    between atoms: _145  and  _148
REMARK   61  A    between atoms: _148  and  _149
REMARK   62  A    between atoms: _152  and  _154
REMARK   63  A    between atoms: _154  and  _155
REMARK   64  A    between atoms: _154  and  _157
REMARK   65  A    between atoms: _157  and  _158
REMARK   66  A    between atoms: _161  and  _163
REMARK   67  A    between atoms: _163  and  _164
REMARK   68  A    between atoms: _163  and  _166
REMARK   69  A    between atoms: _166  and  _167
REMARK   70  A    between atoms: _170  and  _172
REMARK   71  A    between atoms: _172  and  _173
REMARK   72  A    between atoms: _172  and  _175
REMARK   73  A    between atoms: _175  and  _176
REMARK   74  A    between atoms: _176  and  _177
REMARK   75  A    between atoms: _177  and  _178
REMARK   76  A    between atoms: _187  and  _189
REMARK   77  A    between atoms: _189  and  _190
REMARK   78  A    between atoms: _189  and  _192
REMARK   79  A    between atoms: _192  and  _193
REMARK   80  A    between atoms: _199  and  _201
REMARK   81  A    between atoms: _201  and  _202
REMARK   82  A    between atoms: _201  and  _204
REMARK   83  A    between atoms: _204  and  _205
REMARK   84  A    between atoms: _205  and  _206
REMARK   85  A    between atoms: _208  and  _210
REMARK   86  A    between atoms: _210  and  _211
REMARK   87  A    between atoms: _210  and  _213
REMARK   88  A    between atoms: _213  and  _214
REMARK   89  A    between atoms: _217  and  _219
REMARK   90  A    between atoms: _219  and  _220
REMARK   91  A    between atoms: _222  and  _224
REMARK   92  A    between atoms: _224  and  _225
REMARK   93  A    between atoms: _224  and  _227
REMARK   94  A    between atoms: _227  and  _228
REMARK   95  A    between atoms: _231  and  _233
REMARK   96  A    between atoms: _233  and  _234
REMARK   97  A    between atoms: _233  and  _236
REMARK   98  A    between atoms: _236  and  _237
REMARK   99  A    between atoms: _239  and  _241
REMARK  100  A    between atoms: _241  and  _242
REMARK  101  A    between atoms: _244  and  _246
REMARK  102  A    between atoms: _246  and  _247
REMARK  103  A    between atoms: _246  and  _249
REMARK  104  A    between atoms: _249  and  _250
REMARK  105  A    between atoms: _253  and  _255
REMARK  106  A    between atoms: _255  and  _256
REMARK  107  A    between atoms: _255  and  _258
REMARK  108  A    between atoms: _258  and  _259
REMARK  109  A    between atoms: _262  and  _264
REMARK  110  A    between atoms: _264  and  _265
REMARK  111  A    between atoms: _264  and  _267
REMARK  112  A    between atoms: _267  and  _268
REMARK  113  A    between atoms: _271  and  _273
REMARK  114  A    between atoms: _273  and  _274
REMARK  115  A    between atoms: _273  and  _276
REMARK  116  A    between atoms: _276  and  _277
REMARK  117  A    between atoms: _279  and  _281
REMARK  118  A    between atoms: _281  and  _282
REMARK  119  A    between atoms: _284  and  _286
REMARK  120  A    between atoms: _286  and  _287
REMARK  121  A    between atoms: _286  and  _289
REMARK  122  A    between atoms: _289  and  _290
REMARK  123  A    between atoms: _292  and  _294
REMARK  124  A    between atoms: _294  and  _295
REMARK  125  A    between atoms: _294  and  _297
REMARK  126  A    between atoms: _297  and  _298
REMARK  127  A    between atoms: _301  and  _303
REMARK  128  A    between atoms: _303  and  _304
REMARK  129  A    between atoms: _303  and  _306
REMARK  130  A    between atoms: _306  and  _307
REMARK  131  A    between atoms: _307  and  _308
REMARK  132  A    between atoms: _308  and  _309
REMARK  133  A    between atoms: _309  and  _310
REMARK  134  A    between atoms: _314  and  _316
REMARK  135  A    between atoms: _316  and  _317
REMARK  136  A    between atoms: _316  and  _319
REMARK  137  A    between atoms: _319  and  _320
REMARK  138  A    between atoms: _320  and  _321
REMARK  139  A    between atoms: _324  and  _326
REMARK  140  A    between atoms: _326  and  _327
REMARK  141  A    between atoms: _326  and  _329
REMARK  142  A    between atoms: _329  and  _330
REMARK  143  A    between atoms: _336  and  _338
REMARK  144  A    between atoms: _338  and  _339
REMARK  145  A    between atoms: _338  and  _341
REMARK  146  A    between atoms: _341  and  _342
REMARK  147  A    between atoms: _348  and  _350
REMARK  148  A    between atoms: _350  and  _351
REMARK  149  A    between atoms: _350  and  _353
REMARK  150  A    between atoms: _356  and  _358
REMARK  151  A    between atoms: _358  and  _359
REMARK  152  A    between atoms: _358  and  _361
REMARK  153  A    between atoms: _361  and  _362
REMARK  154  A    between atoms: _365  and  _367
REMARK  155  A    between atoms: _367  and  _368
REMARK  156  A    between atoms: _371  and  _373
REMARK  157  A    between atoms: _373  and  _374
REMARK  158  A    between atoms: _373  and  _376
REMARK  159  A    between atoms: _379  and  _381
REMARK  160  A    between atoms: _381  and  _382
REMARK  161  A    between atoms: _381  and  _384
REMARK  162  A    between atoms: _384  and  _385
REMARK  163  A    between atoms: _390  and  _391
REMARK  164  A    between atoms: _393  and  _395
REMARK  165  A    between atoms: _395  and  _396
REMARK  166  A    between atoms: _395  and  _398
REMARK  167  A    between atoms: _398  and  _399
REMARK  168  A    between atoms: _402  and  _404
REMARK  169  A    between atoms: _404  and  _405
REMARK  170  A    between atoms: _404  and  _407
REMARK  171  A    between atoms: _407  and  _408
REMARK  172  A    between atoms: _411  and  _413
REMARK  173  A    between atoms: _413  and  _414
REMARK  174  A    between atoms: _413  and  _416
REMARK  175  A    between atoms: _416  and  _417
REMARK  176  A    between atoms: _417  and  _418
REMARK  177  A    between atoms: _421  and  _423
REMARK  178  A    between atoms: _423  and  _424
REMARK  179  A    between atoms: _423  and  _426
REMARK  180  A    between atoms: _426  and  _427
REMARK  181  A    between atoms: _429  and  _431
REMARK  182  A    between atoms: _431  and  _432
REMARK  183  A    between atoms: _431  and  _434
REMARK  184  A    between atoms: _434  and  _435
REMARK  185  A    between atoms: _438  and  _440
REMARK  186  A    between atoms: _440  and  _441
REMARK  187  A    between atoms: _440  and  _443
REMARK  188  A    between atoms: _443  and  _444
REMARK  189  A    between atoms: _444  and  _445
REMARK  190  A    between atoms: _447  and  _449
REMARK  191  A    between atoms: _449  and  _450
REMARK  192  A    between atoms: _449  and  _452
REMARK  193  A    between atoms: _452  and  _453
REMARK  194  A    between atoms: _458  and  _460
REMARK  195  A    between atoms: _460  and  _461
REMARK  196  A    between atoms: _460  and  _463
REMARK  197  A    between atoms: _463  and  _464
REMARK  198  A    between atoms: _464  and  _465
REMARK  199  A    between atoms: _468  and  _470
REMARK  200  A    between atoms: _470  and  _471
REMARK  201  A    between atoms: _470  and  _473
REMARK  202  A    between atoms: _473  and  _474
REMARK  203  A    between atoms: _479  and  _480
REMARK  204  A    between atoms: _482  and  _484
REMARK  205  A    between atoms: _484  and  _485
REMARK  206  A    between atoms: _484  and  _487
REMARK  207  A    between atoms: _487  and  _488
REMARK  208  A    between atoms: _491  and  _493
REMARK  209  A    between atoms: _493  and  _494
REMARK  210  A    between atoms: _493  and  _496
REMARK  211  A    between atoms: _496  and  _497
REMARK  212  A    between atoms: _497  and  _498
REMARK  213  A    between atoms: _498  and  _499
REMARK  214  A    between atoms: _499  and  _500
REMARK  215  A    between atoms: _504  and  _506
REMARK  216  A    between atoms: _506  and  _507
REMARK  217  A    between atoms: _509  and  _511
REMARK  218  A    between atoms: _511  and  _512
REMARK  219  A    between atoms: _511  and  _514
REMARK  220  A    between atoms: _514  and  _515
REMARK  221  A    between atoms: _520  and  _521
REMARK  222  A    between atoms: _523  and  _525
REMARK  223  A    between atoms: _525  and  _526
REMARK  224  A    between atoms: _528  and  _530
REMARK  225  A    between atoms: _530  and  _531
REMARK  226  A    between atoms: _530  and  _533
REMARK  227  A    between atoms: _533  and  _534
REMARK  228  A    between atoms: _534  and  _535
REMARK  229  A    between atoms: _535  and  _536
REMARK  230  A    between atoms: _536  and  _537
REMARK  231  A    between atoms: _541  and  _543
REMARK  232  A    between atoms: _543  and  _544
REMARK  233  A    between atoms: _543  and  _546
REMARK  234  A    between atoms: _546  and  _547
REMARK                            x       y       z     vdW  Elec       q    Type
REMARK                         _______ _______ _______ _____ _____    ______ ____
ROOT
ATOM      1  O   HOH     1       4.482  19.290  14.240  0.00  0.00    +0.000 OA
ENDROOT
TORSDOF 0
REMARK  Name = ../refined-set-2016/2p2a/2p2a_pocket.pdb
REMARK  234 active torsions:
REMARK  status: ('A' for Active; 'I' for Inactive)
REMARK    1  A    between atoms: _1  and  _3
REMARK    2  A    between atoms: _3  and  _4
REMARK    3  A    between atoms: _3  and  _6
REMARK    4  A    between atoms: _6  and  _7
REMARK    5  A    between atoms: _10  and  _12
REMARK    6  A    between atoms: _12  and  _13
REMARK    7  A    between atoms: _12  and  _15
REMARK    8  A    between atoms: _15  and  _16
REMARK    9  A    between atoms: _19  and  _21
REMARK   10  A    between atoms: _21  and  _22
REMARK   11  A    between atoms: _21  and  _24
REMARK   12  A    between atoms: _24  and  _25
REMARK   13  A    between atoms: _25  and  _26
REMARK   14  A    between atoms: _29  and  _31
REMARK   15  A    between atoms: _31  and  _32
REMARK   16  A    between atoms: _31  and  _34
REMARK   17  A    between atoms: _34  and  _35
REMARK   18  A    between atoms: _38  and  _39
REMARK   19  A    between atoms: _44  and  _46
REMARK   20  A    between atoms: _46  and  _47
REMARK   21  A    between atoms: _46  and  _49
REMARK   22  A    between atoms: _49  and  _50
REMARK   23  A    between atoms: _55  and  _56
REMARK   24  A    between atoms: _58  and  _60
REMARK   25  A    between atoms: _60  and  _61
REMARK   26  A    between atoms: _60  and  _63
REMARK   27  A    between atoms: _66  and  _68
REMARK   28  A    between atoms: _68  and  _69
REMARK   29  A    between atoms: _68  and  _71
REMARK   30  A    between atoms: _71  and  _72
REMARK   31  A    between atoms: _72  and  _73
REMARK   32  A    between atoms: _73  and  _74
REMARK   33  A    between atoms: _74  and  _75
REMARK   34  A    between atoms: _79  and  _81
REMARK   35  A    between atoms: _81  and  _82
REMARK   36  A    between atoms: _81  and  _84
REMARK   37  A    between atoms: _84  and  _85
REMARK   38  A    between atoms: _90  and  _91
REMARK   39  A    between atoms: _93  and  _95
REMARK   40  A    between atoms: _95  and  _96
REMARK   41  A    between atoms: _98  and  _100
REMARK   42  A    between atoms: _100  and  _101
REMARK   43  A    between atoms: _104  and  _106
REMARK   44  A    between atoms: _106  and  _107
REMARK   45  A    between atoms: _106  and  _109
REMARK   46  A    between atoms: _109  and  _110
REMARK   47  A    between atoms: _110  and  _111
REMARK   48  A    between atoms: _113  and  _115
REMARK   49  A    between atoms: _115  and  _116
REMARK   50  A    between atoms: _115  and  _118
REMARK   51  A    between atoms: _121  and  _123
REMARK   52  A    between atoms: _123  and  _124
REMARK   53  A    between atoms: _128  and  _129
REMARK   54  A    between atoms: _134  and  _136
REMARK   55  A    between atoms: _136  and  _137
REMARK   56  A    between atoms: _136  and  _139
REMARK   57  A    between atoms: _139  and  _140
REMARK   58  A    between atoms: _143  and  _145
REMARK   59  A    between atoms: _145  and  _146
REMARK   60  A    between atoms: _145  and  _148
REMARK   61  A    between atoms: _148  and  _149
REMARK   62  A    between atoms: _152  and  _154
REMARK   63  A    between atoms: _154  and  _155
REMARK   64  A    between atoms: _154  and  _157
REMARK   65  A    between atoms: _157  and  _158
REMARK   66  A    between atoms: _161  and  _163
REMARK   67  A    between atoms: _163  and  _164
REMARK   68  A    between atoms: _163  and  _166
REMARK   69  A    between atoms: _166  and  _167
REMARK   70  A    between atoms: _170  and  _172
REMARK   71  A    between atoms: _172  and  _173
REMARK   72  A    between atoms: _172  and  _175
REMARK   73  A    between atoms: _175  and  _176
REMARK   74  A    between atoms: _176  and  _177
REMARK   75  A    between atoms: _177  and  _178
REMARK   76  A    between atoms: _187  and  _189
REMARK   77  A    between atoms: _189  and  _190
REMARK   78  A    between atoms: _189  and  _192
REMARK   79  A    between atoms: _192  and  _193
REMARK   80  A    between atoms: _199  and  _201
REMARK   81  A    between atoms: _201  and  _202
REMARK   82  A    between atoms: _201  and  _204
REMARK   83  A    between atoms: _204  and  _205
REMARK   84  A    between atoms: _205  and  _206
REMARK   85  A    between atoms: _208  and  _210
REMARK   86  A    between atoms: _210  and  _211
REMARK   87  A    between atoms: _210  and  _213
REMARK   88  A    between atoms: _213  and  _214
REMARK   89  A    between atoms: _217  and  _219
REMARK   90  A    between atoms: _219  and  _220
REMARK   91  A    between atoms: _222  and  _224
REMARK   92  A    between atoms: _224  and  _225
REMARK   93  A    between atoms: _224  and  _227
REMARK   94  A    between atoms: _227  and  _228
REMARK   95  A    between atoms: _231  and  _233
REMARK   96  A    between atoms: _233  and  _234
REMARK   97  A    between atoms: _233  and  _236
REMARK   98  A    between atoms: _236  and  _237
REMARK   99  A    between atoms: _239  and  _241
REMARK  100  A    between atoms: _241  and  _242
REMARK  101  A    between atoms: _244  and  _246
REMARK  102  A    between atoms: _246  and  _247
REMARK  103  A    between atoms: _246  and  _249
REMARK  104  A    between atoms: _249  and  _250
REMARK  105  A    between atoms: _253  and  _255
REMARK  106  A    between atoms: _255  and  _256
REMARK  107  A    between atoms: _255  and  _258
REMARK  108  A    between atoms: _258  and  _259
REMARK  109  A    between atoms: _262  and  _264
REMARK  110  A    between atoms: _264  and  _265
REMARK  111  A    between atoms: _264  and  _267
REMARK  112  A    between atoms: _267  and  _268
REMARK  113  A    between atoms: _271  and  _273
REMARK  114  A    between atoms: _273  and  _274
REMARK  115  A    between atoms: _273  and  _276
REMARK  116  A    between atoms: _276  and  _277
REMARK  117  A    between atoms: _279  and  _281
REMARK  118  A    between atoms: _281  and  _282
REMARK  119  A    between atoms: _284  and  _286
REMARK  120  A    between atoms: _286  and  _287
REMARK  121  A    between atoms: _286  and  _289
REMARK  122  A    between atoms: _289  and  _290
REMARK  123  A    between atoms: _292  and  _294
REMARK  124  A    between atoms: _294  and  _295
REMARK  125  A    between atoms: _294  and  _297
REMARK  126  A    between atoms: _297  and  _298
REMARK  127  A    between atoms: _301  and  _303
REMARK  128  A    between atoms: _303  and  _304
REMARK  129  A    between atoms: _303  and  _306
REMARK  130  A    between atoms: _306  and  _307
REMARK  131  A    between atoms: _307  and  _308
REMARK  132  A    between atoms: _308  and  _309
REMARK  133  A    between atoms: _309  and  _310
REMARK  134  A    between atoms: _314  and  _316
REMARK  135  A    between atoms: _316  and  _317
REMARK  136  A    between atoms: _316  and  _319
REMARK  137  A    between atoms: _319  and  _320
REMARK  138  A    between atoms: _320  and  _321
REMARK  139  A    between atoms: _324  and  _326
REMARK  140  A    between atoms: _326  and  _327
REMARK  141  A    between atoms: _326  and  _329
REMARK  142  A    between atoms: _329  and  _330
REMARK  143  A    between atoms: _336  and  _338
REMARK  144  A    between atoms: _338  and  _339
REMARK  145  A    between atoms: _338  and  _341
REMARK  146  A    between atoms: _341  and  _342
REMARK  147  A    between atoms: _348  and  _350
REMARK  148  A    between atoms: _350  and  _351
REMARK  149  A    between atoms: _350  and  _353
REMARK  150  A    between atoms: _356  and  _358
REMARK  151  A    between atoms: _358  and  _359
REMARK  152  A    between atoms: _358  and  _361
REMARK  153  A    between atoms: _361  and  _362
REMARK  154  A    between atoms: _365  and  _367
REMARK  155  A    between atoms: _367  and  _368
REMARK  156  A    between atoms: _371  and  _373
REMARK  157  A    between atoms: _373  and  _374
REMARK  158  A    between atoms: _373  and  _376
REMARK  159  A    between atoms: _379  and  _381
REMARK  160  A    between atoms: _381  and  _382
REMARK  161  A    between atoms: _381  and  _384
REMARK  162  A    between atoms: _384  and  _385
REMARK  163  A    between atoms: _390  and  _391
REMARK  164  A    between atoms: _393  and  _395
REMARK  165  A    between atoms: _395  and  _396
REMARK  166  A    between atoms: _395  and  _398
REMARK  167  A    between atoms: _398  and  _399
REMARK  168  A    between atoms: _402  and  _404
REMARK  169  A    between atoms: _404  and  _405
REMARK  170  A    between atoms: _404  and  _407
REMARK  171  A    between atoms: _407  and  _408
REMARK  172  A    between atoms: _411  and  _413
REMARK  173  A    between atoms: _413  and  _414
REMARK  174  A    between atoms: _413  and  _416
REMARK  175  A    between atoms: _416  and  _417
REMARK  176  A    between atoms: _417  and  _418
REMARK  177  A    between atoms: _421  and  _423
REMARK  178  A    between atoms: _423  and  _424
REMARK  179  A    between atoms: _423  and  _426
REMARK  180  A    between atoms: _426  and  _427
REMARK  181  A    between atoms: _429  and  _431
REMARK  182  A    between atoms: _431  and  _432
REMARK  183  A    between atoms: _431  and  _434
REMARK  184  A    between atoms: _434  and  _435
REMARK  185  A    between atoms: _438  and  _440
REMARK  186  A    between atoms: _440  and  _441
REMARK  187  A    between atoms: _440  and  _443
REMARK  188  A    between atoms: _443  and  _444
REMARK  189  A    between atoms: _444  and  _445
REMARK  190  A    between atoms: _447  and  _449
REMARK  191  A    between atoms: _449  and  _450
REMARK  192  A    between atoms: _449  and  _452
REMARK  193  A    between atoms: _452  and  _453
REMARK  194  A    between atoms: _458  and  _460
REMARK  195  A    between atoms: _460  and  _461
REMARK  196  A    between atoms: _460  and  _463
REMARK  197  A    between atoms: _463  and  _464
REMARK  198  A    between atoms: _464  and  _465
REMARK  199  A    between atoms: _468  and  _470
REMARK  200  A    between atoms: _470  and  _471
REMARK  201  A    between atoms: _470  and  _473
REMARK  202  A    between atoms: _473  and  _474
REMARK  203  A    between atoms: _479  and  _480
REMARK  204  A    between atoms: _482  and  _484
REMARK  205  A    between atoms: _484  and  _485
REMARK  206  A    between atoms: _484  and  _487
REMARK  207  A    between atoms: _487  and  _488
REMARK  208  A    between atoms: _491  and  _493
REMARK  209  A    between atoms: _493  and  _494
REMARK  210  A    between atoms: _493  and  _496
REMARK  211  A    between atoms: _496  and  _497
REMARK  212  A    between atoms: _497  and  _498
REMARK  213  A    between atoms: _498  and  _499
REMARK  214  A    between atoms: _499  and  _500
REMARK  215  A    between atoms: _504  and  _506
REMARK  216  A    between atoms: _506  and  _507
REMARK  217  A    between atoms: _509  and  _511
REMARK  218  A    between atoms: _511  and  _512
REMARK  219  A    between atoms: _511  and  _514
REMARK  220  A    between atoms: _514  and  _515
REMARK  221  A    between atoms: _520  and  _521
REMARK  222  A    between atoms: _523  and  _525
REMARK  223  A    between atoms: _525  and  _526
REMARK  224  A    between atoms: _528  and  _530
REMARK  225  A    between atoms: _530  and  _531
REMARK  226  A    between atoms: _530  and  _533
REMARK  227  A    between atoms: _533  and  _534
REMARK  228  A    between atoms: _534  and  _535
REMARK  229  A    between atoms: _535  and  _536
REMARK  230  A    between atoms: _536  and  _537
REMARK  231  A    between atoms: _541  and  _543
REMARK  232  A    between atoms: _543  and  _544
REMARK  233  A    between atoms: _543  and  _546
REMARK  234  A    between atoms: _546  and  _547
REMARK                            x       y       z     vdW  Elec       q    Type
REMARK                         _______ _______ _______ _____ _____    ______ ____
ROOT
ATOM      1  O   HOH     1       4.926  16.138  17.458  0.00  0.00    +0.000 OA
ENDROOT
TORSDOF 0
REMARK  Name = ../refined-set-2016/2p2a/2p2a_pocket.pdb
REMARK  234 active torsions:
REMARK  status: ('A' for Active; 'I' for Inactive)
REMARK    1  A    between atoms: _1  and  _3
REMARK    2  A    between atoms: _3  and  _4
REMARK    3  A    between atoms: _3  and  _6
REMARK    4  A    between atoms: _6  and  _7
REMARK    5  A    between atoms: _10  and  _12
REMARK    6  A    between atoms: _12  and  _13
REMARK    7  A    between atoms: _12  and  _15
REMARK    8  A    between atoms: _15  and  _16
REMARK    9  A    between atoms: _19  and  _21
REMARK   10  A    between atoms: _21  and  _22
REMARK   11  A    between atoms: _21  and  _24
REMARK   12  A    between atoms: _24  and  _25
REMARK   13  A    between atoms: _25  and  _26
REMARK   14  A    between atoms: _29  and  _31
REMARK   15  A    between atoms: _31  and  _32
REMARK   16  A    between atoms: _31  and  _34
REMARK   17  A    between atoms: _34  and  _35
REMARK   18  A    between atoms: _38  and  _39
REMARK   19  A    between atoms: _44  and  _46
REMARK   20  A    between atoms: _46  and  _47
REMARK   21  A    between atoms: _46  and  _49
REMARK   22  A    between atoms: _49  and  _50
REMARK   23  A    between atoms: _55  and  _56
REMARK   24  A    between atoms: _58  and  _60
REMARK   25  A    between atoms: _60  and  _61
REMARK   26  A    between atoms: _60  and  _63
REMARK   27  A    between atoms: _66  and  _68
REMARK   28  A    between atoms: _68  and  _69
REMARK   29  A    between atoms: _68  and  _71
REMARK   30  A    between atoms: _71  and  _72
REMARK   31  A    between atoms: _72  and  _73
REMARK   32  A    between atoms: _73  and  _74
REMARK   33  A    between atoms: _74  and  _75
REMARK   34  A    between atoms: _79  and  _81
REMARK   35  A    between atoms: _81  and  _82
REMARK   36  A    between atoms: _81  and  _84
REMARK   37  A    between atoms: _84  and  _85
REMARK   38  A    between atoms: _90  and  _91
REMARK   39  A    between atoms: _93  and  _95
REMARK   40  A    between atoms: _95  and  _96
REMARK   41  A    between atoms: _98  and  _100
REMARK   42  A    between atoms: _100  and  _101
REMARK   43  A    between atoms: _104  and  _106
REMARK   44  A    between atoms: _106  and  _107
REMARK   45  A    between atoms: _106  and  _109
REMARK   46  A    between atoms: _109  and  _110
REMARK   47  A    between atoms: _110  and  _111
REMARK   48  A    between atoms: _113  and  _115
REMARK   49  A    between atoms: _115  and  _116
REMARK   50  A    between atoms: _115  and  _118
REMARK   51  A    between atoms: _121  and  _123
REMARK   52  A    between atoms: _123  and  _124
REMARK   53  A    between atoms: _128  and  _129
REMARK   54  A    between atoms: _134  and  _136
REMARK   55  A    between atoms: _136  and  _137
REMARK   56  A    between atoms: _136  and  _139
REMARK   57  A    between atoms: _139  and  _140
REMARK   58  A    between atoms: _143  and  _145
REMARK   59  A    between atoms: _145  and  _146
REMARK   60  A    between atoms: _145  and  _148
REMARK   61  A    between atoms: _148  and  _149
REMARK   62  A    between atoms: _152  and  _154
REMARK   63  A    between atoms: _154  and  _155
REMARK   64  A    between atoms: _154  and  _157
REMARK   65  A    between atoms: _157  and  _158
REMARK   66  A    between atoms: _161  and  _163
REMARK   67  A    between atoms: _163  and  _164
REMARK   68  A    between atoms: _163  and  _166
REMARK   69  A    between atoms: _166  and  _167
REMARK   70  A    between atoms: _170  and  _172
REMARK   71  A    between atoms: _172  and  _173
REMARK   72  A    between atoms: _172  and  _175
REMARK   73  A    between atoms: _175  and  _176
REMARK   74  A    between atoms: _176  and  _177
REMARK   75  A    between atoms: _177  and  _178
REMARK   76  A    between atoms: _187  and  _189
REMARK   77  A    between atoms: _189  and  _190
REMARK   78  A    between atoms: _189  and  _192
REMARK   79  A    between atoms: _192  and  _193
REMARK   80  A    between atoms: _199  and  _201
REMARK   81  A    between atoms: _201  and  _202
REMARK   82  A    between atoms: _201  and  _204
REMARK   83  A    between atoms: _204  and  _205
REMARK   84  A    between atoms: _205  and  _206
REMARK   85  A    between atoms: _208  and  _210
REMARK   86  A    between atoms: _210  and  _211
REMARK   87  A    between atoms: _210  and  _213
REMARK   88  A    between atoms: _213  and  _214
REMARK   89  A    between atoms: _217  and  _219
REMARK   90  A    between atoms: _219  and  _220
REMARK   91  A    between atoms: _222  and  _224
REMARK   92  A    between atoms: _224  and  _225
REMARK   93  A    between atoms: _224  and  _227
REMARK   94  A    between atoms: _227  and  _228
REMARK   95  A    between atoms: _231  and  _233
REMARK   96  A    between atoms: _233  and  _234
REMARK   97  A    between atoms: _233  and  _236
REMARK   98  A    between atoms: _236  and  _237
REMARK   99  A    between atoms: _239  and  _241
REMARK  100  A    between atoms: _241  and  _242
REMARK  101  A    between atoms: _244  and  _246
REMARK  102  A    between atoms: _246  and  _247
REMARK  103  A    between atoms: _246  and  _249
REMARK  104  A    between atoms: _249  and  _250
REMARK  105  A    between atoms: _253  and  _255
REMARK  106  A    between atoms: _255  and  _256
REMARK  107  A    between atoms: _255  and  _258
REMARK  108  A    between atoms: _258  and  _259
REMARK  109  A    between atoms: _262  and  _264
REMARK  110  A    between atoms: _264  and  _265
REMARK  111  A    between atoms: _264  and  _267
REMARK  112  A    between atoms: _267  and  _268
REMARK  113  A    between atoms: _271  and  _273
REMARK  114  A    between atoms: _273  and  _274
REMARK  115  A    between atoms: _273  and  _276
REMARK  116  A    between atoms: _276  and  _277
REMARK  117  A    between atoms: _279  and  _281
REMARK  118  A    between atoms: _281  and  _282
REMARK  119  A    between atoms: _284  and  _286
REMARK  120  A    between atoms: _286  and  _287
REMARK  121  A    between atoms: _286  and  _289
REMARK  122  A    between atoms: _289  and  _290
REMARK  123  A    between atoms: _292  and  _294
REMARK  124  A    between atoms: _294  and  _295
REMARK  125  A    between atoms: _294  and  _297
REMARK  126  A    between atoms: _297  and  _298
REMARK  127  A    between atoms: _301  and  _303
REMARK  128  A    between atoms: _303  and  _304
REMARK  129  A    between atoms: _303  and  _306
REMARK  130  A    between atoms: _306  and  _307
REMARK  131  A    between atoms: _307  and  _308
REMARK  132  A    between atoms: _308  and  _309
REMARK  133  A    between atoms: _309  and  _310
REMARK  134  A    between atoms: _314  and  _316
REMARK  135  A    between atoms: _316  and  _317
REMARK  136  A    between atoms: _316  and  _319
REMARK  137  A    between atoms: _319  and  _320
REMARK  138  A    between atoms: _320  and  _321
REMARK  139  A    between atoms: _324  and  _326
REMARK  140  A    between atoms: _326  and  _327
REMARK  141  A    between atoms: _326  and  _329
REMARK  142  A    between atoms: _329  and  _330
REMARK  143  A    between atoms: _336  and  _338
REMARK  144  A    between atoms: _338  and  _339
REMARK  145  A    between atoms: _338  and  _341
REMARK  146  A    between atoms: _341  and  _342
REMARK  147  A    between atoms: _348  and  _350
REMARK  148  A    between atoms: _350  and  _351
REMARK  149  A    between atoms: _350  and  _353
REMARK  150  A    between atoms: _356  and  _358
REMARK  151  A    between atoms: _358  and  _359
REMARK  152  A    between atoms: _358  and  _361
REMARK  153  A    between atoms: _361  and  _362
REMARK  154  A    between atoms: _365  and  _367
REMARK  155  A    between atoms: _367  and  _368
REMARK  156  A    between atoms: _371  and  _373
REMARK  157  A    between atoms: _373  and  _374
REMARK  158  A    between atoms: _373  and  _376
REMARK  159  A    between atoms: _379  and  _381
REMARK  160  A    between atoms: _381  and  _382
REMARK  161  A    between atoms: _381  and  _384
REMARK  162  A    between atoms: _384  and  _385
REMARK  163  A    between atoms: _390  and  _391
REMARK  164  A    between atoms: _393  and  _395
REMARK  165  A    between atoms: _395  and  _396
REMARK  166  A    between atoms: _395  and  _398
REMARK  167  A    between atoms: _398  and  _399
REMARK  168  A    between atoms: _402  and  _404
REMARK  169  A    between atoms: _404  and  _405
REMARK  170  A    between atoms: _404  and  _407
REMARK  171  A    between atoms: _407  and  _408
REMARK  172  A    between atoms: _411  and  _413
REMARK  173  A    between atoms: _413  and  _414
REMARK  174  A    between atoms: _413  and  _416
REMARK  175  A    between atoms: _416  and  _417
REMARK  176  A    between atoms: _417  and  _418
REMARK  177  A    between atoms: _421  and  _423
REMARK  178  A    between atoms: _423  and  _424
REMARK  179  A    between atoms: _423  and  _426
REMARK  180  A    between atoms: _426  and  _427
REMARK  181  A    between atoms: _429  and  _431
REMARK  182  A    between atoms: _431  and  _432
REMARK  183  A    between atoms: _431  and  _434
REMARK  184  A    between atoms: _434  and  _435
REMARK  185  A    between atoms: _438  and  _440
REMARK  186  A    between atoms: _440  and  _441
REMARK  187  A    between atoms: _440  and  _443
REMARK  188  A    between atoms: _443  and  _444
REMARK  189  A    between atoms: _444  and  _445
REMARK  190  A    between atoms: _447  and  _449
REMARK  191  A    between atoms: _449  and  _450
REMARK  192  A    between atoms: _449  and  _452
REMARK  193  A    between atoms: _452  and  _453
REMARK  194  A    between atoms: _458  and  _460
REMARK  195  A    between atoms: _460  and  _461
REMARK  196  A    between atoms: _460  and  _463
REMARK  197  A    between atoms: _463  and  _464
REMARK  198  A    between atoms: _464  and  _465
REMARK  199  A    between atoms: _468  and  _470
REMARK  200  A    between atoms: _470  and  _471
REMARK  201  A    between atoms: _470  and  _473
REMARK  202  A    between atoms: _473  and  _474
REMARK  203  A    between atoms: _479  and  _480
REMARK  204  A    between atoms: _482  and  _484
REMARK  205  A    between atoms: _484  and  _485
REMARK  206  A    between atoms: _484  and  _487
REMARK  207  A    between atoms: _487  and  _488
REMARK  208  A    between atoms: _491  and  _493
REMARK  209  A    between atoms: _493  and  _494
REMARK  210  A    between atoms: _493  and  _496
REMARK  211  A    between atoms: _496  and  _497
REMARK  212  A    between atoms: _497  and  _498
REMARK  213  A    between atoms: _498  and  _499
REMARK  214  A    between atoms: _499  and  _500
REMARK  215  A    between atoms: _504  and  _506
REMARK  216  A    between atoms: _506  and  _507
REMARK  217  A    between atoms: _509  and  _511
REMARK  218  A    between atoms: _511  and  _512
REMARK  219  A    between atoms: _511  and  _514
REMARK  220  A    between atoms: _514  and  _515
REMARK  221  A    between atoms: _520  and  _521
REMARK  222  A    between atoms: _523  and  _525
REMARK  223  A    between atoms: _525  and  _526
REMARK  224  A    between atoms: _528  and  _530
REMARK  225  A    between atoms: _530  and  _531
REMARK  226  A    between atoms: _530  and  _533
REMARK  227  A    between atoms: _533  and  _534
REMARK  228  A    between atoms: _534  and  _535
REMARK  229  A    between atoms: _535  and  _536
REMARK  230  A    between atoms: _536  and  _537
REMARK  231  A    between atoms: _541  and  _543
REMARK  232  A    between atoms: _543  and  _544
REMARK  233  A    between atoms: _543  and  _546
REMARK  234  A    between atoms: _546  and  _547
REMARK                            x       y       z     vdW  Elec       q    Type
REMARK                         _______ _______ _______ _____ _____    ______ ____
ROOT
ATOM      1  O   HOH     1       5.214  34.135  23.097  0.00  0.00    +0.000 OA
ENDROOT
TORSDOF 0
REMARK  Name = ../refined-set-2016/2p2a/2p2a_pocket.pdb
REMARK  234 active torsions:
REMARK  status: ('A' for Active; 'I' for Inactive)
REMARK    1  A    between atoms: _1  and  _3
REMARK    2  A    between atoms: _3  and  _4
REMARK    3  A    between atoms: _3  and  _6
REMARK    4  A    between atoms: _6  and  _7
REMARK    5  A    between atoms: _10  and  _12
REMARK    6  A    between atoms: _12  and  _13
REMARK    7  A    between atoms: _12  and  _15
REMARK    8  A    between atoms: _15  and  _16
REMARK    9  A    between atoms: _19  and  _21
REMARK   10  A    between atoms: _21  and  _22
REMARK   11  A    between atoms: _21  and  _24
REMARK   12  A    between atoms: _24  and  _25
REMARK   13  A    between atoms: _25  and  _26
REMARK   14  A    between atoms: _29  and  _31
REMARK   15  A    between atoms: _31  and  _32
REMARK   16  A    between atoms: _31  and  _34
REMARK   17  A    between atoms: _34  and  _35
REMARK   18  A    between atoms: _38  and  _39
REMARK   19  A    between atoms: _44  and  _46
REMARK   20  A    between atoms: _46  and  _47
REMARK   21  A    between atoms: _46  and  _49
REMARK   22  A    between atoms: _49  and  _50
REMARK   23  A    between atoms: _55  and  _56
REMARK   24  A    between atoms: _58  and  _60
REMARK   25  A    between atoms: _60  and  _61
REMARK   26  A    between atoms: _60  and  _63
REMARK   27  A    between atoms: _66  and  _68
REMARK   28  A    between atoms: _68  and  _69
REMARK   29  A    between atoms: _68  and  _71
REMARK   30  A    between atoms: _71  and  _72
REMARK   31  A    between atoms: _72  and  _73
REMARK   32  A    between atoms: _73  and  _74
REMARK   33  A    between atoms: _74  and  _75
REMARK   34  A    between atoms: _79  and  _81
REMARK   35  A    between atoms: _81  and  _82
REMARK   36  A    between atoms: _81  and  _84
REMARK   37  A    between atoms: _84  and  _85
REMARK   38  A    between atoms: _90  and  _91
REMARK   39  A    between atoms: _93  and  _95
REMARK   40  A    between atoms: _95  and  _96
REMARK   41  A    between atoms: _98  and  _100
REMARK   42  A    between atoms: _100  and  _101
REMARK   43  A    between atoms: _104  and  _106
REMARK   44  A    between atoms: _106  and  _107
REMARK   45  A    between atoms: _106  and  _109
REMARK   46  A    between atoms: _109  and  _110
REMARK   47  A    between atoms: _110  and  _111
REMARK   48  A    between atoms: _113  and  _115
REMARK   49  A    between atoms: _115  and  _116
REMARK   50  A    between atoms: _115  and  _118
REMARK   51  A    between atoms: _121  and  _123
REMARK   52  A    between atoms: _123  and  _124
REMARK   53  A    between atoms: _128  and  _129
REMARK   54  A    between atoms: _134  and  _136
REMARK   55  A    between atoms: _136  and  _137
REMARK   56  A    between atoms: _136  and  _139
REMARK   57  A    between atoms: _139  and  _140
REMARK   58  A    between atoms: _143  and  _145
REMARK   59  A    between atoms: _145  and  _146
REMARK   60  A    between atoms: _145  and  _148
REMARK   61  A    between atoms: _148  and  _149
REMARK   62  A    between atoms: _152  and  _154
REMARK   63  A    between atoms: _154  and  _155
REMARK   64  A    between atoms: _154  and  _157
REMARK   65  A    between atoms: _157  and  _158
REMARK   66  A    between atoms: _161  and  _163
REMARK   67  A    between atoms: _163  and  _164
REMARK   68  A    between atoms: _163  and  _166
REMARK   69  A    between atoms: _166  and  _167
REMARK   70  A    between atoms: _170  and  _172
REMARK   71  A    between atoms: _172  and  _173
REMARK   72  A    between atoms: _172  and  _175
REMARK   73  A    between atoms: _175  and  _176
REMARK   74  A    between atoms: _176  and  _177
REMARK   75  A    between atoms: _177  and  _178
REMARK   76  A    between atoms: _187  and  _189
REMARK   77  A    between atoms: _189  and  _190
REMARK   78  A    between atoms: _189  and  _192
REMARK   79  A    between atoms: _192  and  _193
REMARK   80  A    between atoms: _199  and  _201
REMARK   81  A    between atoms: _201  and  _202
REMARK   82  A    between atoms: _201  and  _204
REMARK   83  A    between atoms: _204  and  _205
REMARK   84  A    between atoms: _205  and  _206
REMARK   85  A    between atoms: _208  and  _210
REMARK   86  A    between atoms: _210  and  _211
REMARK   87  A    between atoms: _210  and  _213
REMARK   88  A    between atoms: _213  and  _214
REMARK   89  A    between atoms: _217  and  _219
REMARK   90  A    between atoms: _219  and  _220
REMARK   91  A    between atoms: _222  and  _224
REMARK   92  A    between atoms: _224  and  _225
REMARK   93  A    between atoms: _224  and  _227
REMARK   94  A    between atoms: _227  and  _228
REMARK   95  A    between atoms: _231  and  _233
REMARK   96  A    between atoms: _233  and  _234
REMARK   97  A    between atoms: _233  and  _236
REMARK   98  A    between atoms: _236  and  _237
REMARK   99  A    between atoms: _239  and  _241
REMARK  100  A    between atoms: _241  and  _242
REMARK  101  A    between atoms: _244  and  _246
REMARK  102  A    between atoms: _246  and  _247
REMARK  103  A    between atoms: _246  and  _249
REMARK  104  A    between atoms: _249  and  _250
REMARK  105  A    between atoms: _253  and  _255
REMARK  106  A    between atoms: _255  and  _256
REMARK  107  A    between atoms: _255  and  _258
REMARK  108  A    between atoms: _258  and  _259
REMARK  109  A    between atoms: _262  and  _264
REMARK  110  A    between atoms: _264  and  _265
REMARK  111  A    between atoms: _264  and  _267
REMARK  112  A    between atoms: _267  and  _268
REMARK  113  A    between atoms: _271  and  _273
REMARK  114  A    between atoms: _273  and  _274
REMARK  115  A    between atoms: _273  and  _276
REMARK  116  A    between atoms: _276  and  _277
REMARK  117  A    between atoms: _279  and  _281
REMARK  118  A    between atoms: _281  and  _282
REMARK  119  A    between atoms: _284  and  _286
REMARK  120  A    between atoms: _286  and  _287
REMARK  121  A    between atoms: _286  and  _289
REMARK  122  A    between atoms: _289  and  _290
REMARK  123  A    between atoms: _292  and  _294
REMARK  124  A    between atoms: _294  and  _295
REMARK  125  A    between atoms: _294  and  _297
REMARK  126  A    between atoms: _297  and  _298
REMARK  127  A    between atoms: _301  and  _303
REMARK  128  A    between atoms: _303  and  _304
REMARK  129  A    between atoms: _303  and  _306
REMARK  130  A    between atoms: _306  and  _307
REMARK  131  A    between atoms: _307  and  _308
REMARK  132  A    between atoms: _308  and  _309
REMARK  133  A    between atoms: _309  and  _310
REMARK  134  A    between atoms: _314  and  _316
REMARK  135  A    between atoms: _316  and  _317
REMARK  136  A    between atoms: _316  and  _319
REMARK  137  A    between atoms: _319  and  _320
REMARK  138  A    between atoms: _320  and  _321
REMARK  139  A    between atoms: _324  and  _326
REMARK  140  A    between atoms: _326  and  _327
REMARK  141  A    between atoms: _326  and  _329
REMARK  142  A    between atoms: _329  and  _330
REMARK  143  A    between atoms: _336  and  _338
REMARK  144  A    between atoms: _338  and  _339
REMARK  145  A    between atoms: _338  and  _341
REMARK  146  A    between atoms: _341  and  _342
REMARK  147  A    between atoms: _348  and  _350
REMARK  148  A    between atoms: _350  and  _351
REMARK  149  A    between atoms: _350  and  _353
REMARK  150  A    between atoms: _356  and  _358
REMARK  151  A    between atoms: _358  and  _359
REMARK  152  A    between atoms: _358  and  _361
REMARK  153  A    between atoms: _361  and  _362
REMARK  154  A    between atoms: _365  and  _367
REMARK  155  A    between atoms: _367  and  _368
REMARK  156  A    between atoms: _371  and  _373
REMARK  157  A    between atoms: _373  and  _374
REMARK  158  A    between atoms: _373  and  _376
REMARK  159  A    between atoms: _379  and  _381
REMARK  160  A    between atoms: _381  and  _382
REMARK  161  A    between atoms: _381  and  _384
REMARK  162  A    between atoms: _384  and  _385
REMARK  163  A    between atoms: _390  and  _391
REMARK  164  A    between atoms: _393  and  _395
REMARK  165  A    between atoms: _395  and  _396
REMARK  166  A    between atoms: _395  and  _398
REMARK  167  A    between atoms: _398  and  _399
REMARK  168  A    between atoms: _402  and  _404
REMARK  169  A    between atoms: _404  and  _405
REMARK  170  A    between atoms: _404  and  _407
REMARK  171  A    between atoms: _407  and  _408
REMARK  172  A    between atoms: _411  and  _413
REMARK  173  A    between atoms: _413  and  _414
REMARK  174  A    between atoms: _413  and  _416
REMARK  175  A    between atoms: _416  and  _417
REMARK  176  A    between atoms: _417  and  _418
REMARK  177  A    between atoms: _421  and  _423
REMARK  178  A    between atoms: _423  and  _424
REMARK  179  A    between atoms: _423  and  _426
REMARK  180  A    between atoms: _426  and  _427
REMARK  181  A    between atoms: _429  and  _431
REMARK  182  A    between atoms: _431  and  _432
REMARK  183  A    between atoms: _431  and  _434
REMARK  184  A    between atoms: _434  and  _435
REMARK  185  A    between atoms: _438  and  _440
REMARK  186  A    between atoms: _440  and  _441
REMARK  187  A    between atoms: _440  and  _443
REMARK  188  A    between atoms: _443  and  _444
REMARK  189  A    between atoms: _444  and  _445
REMARK  190  A    between atoms: _447  and  _449
REMARK  191  A    between atoms: _449  and  _450
REMARK  192  A    between atoms: _449  and  _452
REMARK  193  A    between atoms: _452  and  _453
REMARK  194  A    between atoms: _458  and  _460
REMARK  195  A    between atoms: _460  and  _461
REMARK  196  A    between atoms: _460  and  _463
REMARK  197  A    between atoms: _463  and  _464
REMARK  198  A    between atoms: _464  and  _465
REMARK  199  A    between atoms: _468  and  _470
REMARK  200  A    between atoms: _470  and  _471
REMARK  201  A    between atoms: _470  and  _473
REMARK  202  A    between atoms: _473  and  _474
REMARK  203  A    between atoms: _479  and  _480
REMARK  204  A    between atoms: _482  and  _484
REMARK  205  A    between atoms: _484  and  _485
REMARK  206  A    between atoms: _484  and  _487
REMARK  207  A    between atoms: _487  and  _488
REMARK  208  A    between atoms: _491  and  _493
REMARK  209  A    between atoms: _493  and  _494
REMARK  210  A    between atoms: _493  and  _496
REMARK  211  A    between atoms: _496  and  _497
REMARK  212  A    between atoms: _497  and  _498
REMARK  213  A    between atoms: _498  and  _499
REMARK  214  A    between atoms: _499  and  _500
REMARK  215  A    between atoms: _504  and  _506
REMARK  216  A    between atoms: _506  and  _507
REMARK  217  A    between atoms: _509  and  _511
REMARK  218  A    between atoms: _511  and  _512
REMARK  219  A    between atoms: _511  and  _514
REMARK  220  A    between atoms: _514  and  _515
REMARK  221  A    between atoms: _520  and  _521
REMARK  222  A    between atoms: _523  and  _525
REMARK  223  A    between atoms: _525  and  _526
REMARK  224  A    between atoms: _528  and  _530
REMARK  225  A    between atoms: _530  and  _531
REMARK  226  A    between atoms: _530  and  _533
REMARK  227  A    between atoms: _533  and  _534
REMARK  228  A    between atoms: _534  and  _535
REMARK  229  A    between atoms: _535  and  _536
REMARK  230  A    between atoms: _536  and  _537
REMARK  231  A    between atoms: _541  and  _543
REMARK  232  A    between atoms: _543  and  _544
REMARK  233  A    between atoms: _543  and  _546
REMARK  234  A    between atoms: _546  and  _547
REMARK                            x       y       z     vdW  Elec       q    Type
REMARK                         _______ _______ _______ _____ _____    ______ ____
ROOT
ATOM      1  O   HOH     1       3.541  20.947  12.164  0.00  0.00    +0.000 OA
ENDROOT
TORSDOF 0
REMARK  Name = ../refined-set-2016/2p2a/2p2a_pocket.pdb
REMARK  234 active torsions:
REMARK  status: ('A' for Active; 'I' for Inactive)
REMARK    1  A    between atoms: _1  and  _3
REMARK    2  A    between atoms: _3  and  _4
REMARK    3  A    between atoms: _3  and  _6
REMARK    4  A    between atoms: _6  and  _7
REMARK    5  A    between atoms: _10  and  _12
REMARK    6  A    between atoms: _12  and  _13
REMARK    7  A    between atoms: _12  and  _15
REMARK    8  A    between atoms: _15  and  _16
REMARK    9  A    between atoms: _19  and  _21
REMARK   10  A    between atoms: _21  and  _22
REMARK   11  A    between atoms: _21  and  _24
REMARK   12  A    between atoms: _24  and  _25
REMARK   13  A    between atoms: _25  and  _26
REMARK   14  A    between atoms: _29  and  _31
REMARK   15  A    between atoms: _31  and  _32
REMARK   16  A    between atoms: _31  and  _34
REMARK   17  A    between atoms: _34  and  _35
REMARK   18  A    between atoms: _38  and  _39
REMARK   19  A    between atoms: _44  and  _46
REMARK   20  A    between atoms: _46  and  _47
REMARK   21  A    between atoms: _46  and  _49
REMARK   22  A    between atoms: _49  and  _50
REMARK   23  A    between atoms: _55  and  _56
REMARK   24  A    between atoms: _58  and  _60
REMARK   25  A    between atoms: _60  and  _61
REMARK   26  A    between atoms: _60  and  _63
REMARK   27  A    between atoms: _66  and  _68
REMARK   28  A    between atoms: _68  and  _69
REMARK   29  A    between atoms: _68  and  _71
REMARK   30  A    between atoms: _71  and  _72
REMARK   31  A    between atoms: _72  and  _73
REMARK   32  A    between atoms: _73  and  _74
REMARK   33  A    between atoms: _74  and  _75
REMARK   34  A    between atoms: _79  and  _81
REMARK   35  A    between atoms: _81  and  _82
REMARK   36  A    between atoms: _81  and  _84
REMARK   37  A    between atoms: _84  and  _85
REMARK   38  A    between atoms: _90  and  _91
REMARK   39  A    between atoms: _93  and  _95
REMARK   40  A    between atoms: _95  and  _96
REMARK   41  A    between atoms: _98  and  _100
REMARK   42  A    between atoms: _100  and  _101
REMARK   43  A    between atoms: _104  and  _106
REMARK   44  A    between atoms: _106  and  _107
REMARK   45  A    between atoms: _106  and  _109
REMARK   46  A    between atoms: _109  and  _110
REMARK   47  A    between atoms: _110  and  _111
REMARK   48  A    between atoms: _113  and  _115
REMARK   49  A    between atoms: _115  and  _116
REMARK   50  A    between atoms: _115  and  _118
REMARK   51  A    between atoms: _121  and  _123
REMARK   52  A    between atoms: _123  and  _124
REMARK   53  A    between atoms: _128  and  _129
REMARK   54  A    between atoms: _134  and  _136
REMARK   55  A    between atoms: _136  and  _137
REMARK   56  A    between atoms: _136  and  _139
REMARK   57  A    between atoms: _139  and  _140
REMARK   58  A    between atoms: _143  and  _145
REMARK   59  A    between atoms: _145  and  _146
REMARK   60  A    between atoms: _145  and  _148
REMARK   61  A    between atoms: _148  and  _149
REMARK   62  A    between atoms: _152  and  _154
REMARK   63  A    between atoms: _154  and  _155
REMARK   64  A    between atoms: _154  and  _157
REMARK   65  A    between atoms: _157  and  _158
REMARK   66  A    between atoms: _161  and  _163
REMARK   67  A    between atoms: _163  and  _164
REMARK   68  A    between atoms: _163  and  _166
REMARK   69  A    between atoms: _166  and  _167
REMARK   70  A    between atoms: _170  and  _172
REMARK   71  A    between atoms: _172  and  _173
REMARK   72  A    between atoms: _172  and  _175
REMARK   73  A    between atoms: _175  and  _176
REMARK   74  A    between atoms: _176  and  _177
REMARK   75  A    between atoms: _177  and  _178
REMARK   76  A    between atoms: _187  and  _189
REMARK   77  A    between atoms: _189  and  _190
REMARK   78  A    between atoms: _189  and  _192
REMARK   79  A    between atoms: _192  and  _193
REMARK   80  A    between atoms: _199  and  _201
REMARK   81  A    between atoms: _201  and  _202
REMARK   82  A    between atoms: _201  and  _204
REMARK   83  A    between atoms: _204  and  _205
REMARK   84  A    between atoms: _205  and  _206
REMARK   85  A    between atoms: _208  and  _210
REMARK   86  A    between atoms: _210  and  _211
REMARK   87  A    between atoms: _210  and  _213
REMARK   88  A    between atoms: _213  and  _214
REMARK   89  A    between atoms: _217  and  _219
REMARK   90  A    between atoms: _219  and  _220
REMARK   91  A    between atoms: _222  and  _224
REMARK   92  A    between atoms: _224  and  _225
REMARK   93  A    between atoms: _224  and  _227
REMARK   94  A    between atoms: _227  and  _228
REMARK   95  A    between atoms: _231  and  _233
REMARK   96  A    between atoms: _233  and  _234
REMARK   97  A    between atoms: _233  and  _236
REMARK   98  A    between atoms: _236  and  _237
REMARK   99  A    between atoms: _239  and  _241
REMARK  100  A    between atoms: _241  and  _242
REMARK  101  A    between atoms: _244  and  _246
REMARK  102  A    between atoms: _246  and  _247
REMARK  103  A    between atoms: _246  and  _249
REMARK  104  A    between atoms: _249  and  _250
REMARK  105  A    between atoms: _253  and  _255
REMARK  106  A    between atoms: _255  and  _256
REMARK  107  A    between atoms: _255  and  _258
REMARK  108  A    between atoms: _258  and  _259
REMARK  109  A    between atoms: _262  and  _264
REMARK  110  A    between atoms: _264  and  _265
REMARK  111  A    between atoms: _264  and  _267
REMARK  112  A    between atoms: _267  and  _268
REMARK  113  A    between atoms: _271  and  _273
REMARK  114  A    between atoms: _273  and  _274
REMARK  115  A    between atoms: _273  and  _276
REMARK  116  A    between atoms: _276  and  _277
REMARK  117  A    between atoms: _279  and  _281
REMARK  118  A    between atoms: _281  and  _282
REMARK  119  A    between atoms: _284  and  _286
REMARK  120  A    between atoms: _286  and  _287
REMARK  121  A    between atoms: _286  and  _289
REMARK  122  A    between atoms: _289  and  _290
REMARK  123  A    between atoms: _292  and  _294
REMARK  124  A    between atoms: _294  and  _295
REMARK  125  A    between atoms: _294  and  _297
REMARK  126  A    between atoms: _297  and  _298
REMARK  127  A    between atoms: _301  and  _303
REMARK  128  A    between atoms: _303  and  _304
REMARK  129  A    between atoms: _303  and  _306
REMARK  130  A    between atoms: _306  and  _307
REMARK  131  A    between atoms: _307  and  _308
REMARK  132  A    between atoms: _308  and  _309
REMARK  133  A    between atoms: _309  and  _310
REMARK  134  A    between atoms: _314  and  _316
REMARK  135  A    between atoms: _316  and  _317
REMARK  136  A    between atoms: _316  and  _319
REMARK  137  A    between atoms: _319  and  _320
REMARK  138  A    between atoms: _320  and  _321
REMARK  139  A    between atoms: _324  and  _326
REMARK  140  A    between atoms: _326  and  _327
REMARK  141  A    between atoms: _326  and  _329
REMARK  142  A    between atoms: _329  and  _330
REMARK  143  A    between atoms: _336  and  _338
REMARK  144  A    between atoms: _338  and  _339
REMARK  145  A    between atoms: _338  and  _341
REMARK  146  A    between atoms: _341  and  _342
REMARK  147  A    between atoms: _348  and  _350
REMARK  148  A    between atoms: _350  and  _351
REMARK  149  A    between atoms: _350  and  _353
REMARK  150  A    between atoms: _356  and  _358
REMARK  151  A    between atoms: _358  and  _359
REMARK  152  A    between atoms: _358  and  _361
REMARK  153  A    between atoms: _361  and  _362
REMARK  154  A    between atoms: _365  and  _367
REMARK  155  A    between atoms: _367  and  _368
REMARK  156  A    between atoms: _371  and  _373
REMARK  157  A    between atoms: _373  and  _374
REMARK  158  A    between atoms: _373  and  _376
REMARK  159  A    between atoms: _379  and  _381
REMARK  160  A    between atoms: _381  and  _382
REMARK  161  A    between atoms: _381  and  _384
REMARK  162  A    between atoms: _384  and  _385
REMARK  163  A    between atoms: _390  and  _391
REMARK  164  A    between atoms: _393  and  _395
REMARK  165  A    between atoms: _395  and  _396
REMARK  166  A    between atoms: _395  and  _398
REMARK  167  A    between atoms: _398  and  _399
REMARK  168  A    between atoms: _402  and  _404
REMARK  169  A    between atoms: _404  and  _405
REMARK  170  A    between atoms: _404  and  _407
REMARK  171  A    between atoms: _407  and  _408
REMARK  172  A    between atoms: _411  and  _413
REMARK  173  A    between atoms: _413  and  _414
REMARK  174  A    between atoms: _413  and  _416
REMARK  175  A    between atoms: _416  and  _417
REMARK  176  A    between atoms: _417  and  _418
REMARK  177  A    between atoms: _421  and  _423
REMARK  178  A    between atoms: _423  and  _424
REMARK  179  A    between atoms: _423  and  _426
REMARK  180  A    between atoms: _426  and  _427
REMARK  181  A    between atoms: _429  and  _431
REMARK  182  A    between atoms: _431  and  _432
REMARK  183  A    between atoms: _431  and  _434
REMARK  184  A    between atoms: _434  and  _435
REMARK  185  A    between atoms: _438  and  _440
REMARK  186  A    between atoms: _440  and  _441
REMARK  187  A    between atoms: _440  and  _443
REMARK  188  A    between atoms: _443  and  _444
REMARK  189  A    between atoms: _444  and  _445
REMARK  190  A    between atoms: _447  and  _449
REMARK  191  A    between atoms: _449  and  _450
REMARK  192  A    between atoms: _449  and  _452
REMARK  193  A    between atoms: _452  and  _453
REMARK  194  A    between atoms: _458  and  _460
REMARK  195  A    between atoms: _460  and  _461
REMARK  196  A    between atoms: _460  and  _463
REMARK  197  A    between atoms: _463  and  _464
REMARK  198  A    between atoms: _464  and  _465
REMARK  199  A    between atoms: _468  and  _470
REMARK  200  A    between atoms: _470  and  _471
REMARK  201  A    between atoms: _470  and  _473
REMARK  202  A    between atoms: _473  and  _474
REMARK  203  A    between atoms: _479  and  _480
REMARK  204  A    between atoms: _482  and  _484
REMARK  205  A    between atoms: _484  and  _485
REMARK  206  A    between atoms: _484  and  _487
REMARK  207  A    between atoms: _487  and  _488
REMARK  208  A    between atoms: _491  and  _493
REMARK  209  A    between atoms: _493  and  _494
REMARK  210  A    between atoms: _493  and  _496
REMARK  211  A    between atoms: _496  and  _497
REMARK  212  A    between atoms: _497  and  _498
REMARK  213  A    between atoms: _498  and  _499
REMARK  214  A    between atoms: _499  and  _500
REMARK  215  A    between atoms: _504  and  _506
REMARK  216  A    between atoms: _506  and  _507
REMARK  217  A    between atoms: _509  and  _511
REMARK  218  A    between atoms: _511  and  _512
REMARK  219  A    between atoms: _511  and  _514
REMARK  220  A    between atoms: _514  and  _515
REMARK  221  A    between atoms: _520  and  _521
REMARK  222  A    between atoms: _523  and  _525
REMARK  223  A    between atoms: _525  and  _526
REMARK  224  A    between atoms: _528  and  _530
REMARK  225  A    between atoms: _530  and  _531
REMARK  226  A    between atoms: _530  and  _533
REMARK  227  A    between atoms: _533  and  _534
REMARK  228  A    between atoms: _534  and  _535
REMARK  229  A    between atoms: _535  and  _536
REMARK  230  A    between atoms: _536  and  _537
REMARK  231  A    between atoms: _541  and  _543
REMARK  232  A    between atoms: _543  and  _544
REMARK  233  A    between atoms: _543  and  _546
REMARK  234  A    between atoms: _546  and  _547
REMARK                            x       y       z     vdW  Elec       q    Type
REMARK                         _______ _______ _______ _____ _____    ______ ____
ROOT
ATOM      1  O   HOH     1      10.744  32.853  27.123  0.00  0.00    +0.000 OA
ENDROOT
TORSDOF 0
REMARK  Name = ../refined-set-2016/2p2a/2p2a_pocket.pdb
REMARK  234 active torsions:
REMARK  status: ('A' for Active; 'I' for Inactive)
REMARK    1  A    between atoms: _1  and  _3
REMARK    2  A    between atoms: _3  and  _4
REMARK    3  A    between atoms: _3  and  _6
REMARK    4  A    between atoms: _6  and  _7
REMARK    5  A    between atoms: _10  and  _12
REMARK    6  A    between atoms: _12  and  _13
REMARK    7  A    between atoms: _12  and  _15
REMARK    8  A    between atoms: _15  and  _16
REMARK    9  A    between atoms: _19  and  _21
REMARK   10  A    between atoms: _21  and  _22
REMARK   11  A    between atoms: _21  and  _24
REMARK   12  A    between atoms: _24  and  _25
REMARK   13  A    between atoms: _25  and  _26
REMARK   14  A    between atoms: _29  and  _31
REMARK   15  A    between atoms: _31  and  _32
REMARK   16  A    between atoms: _31  and  _34
REMARK   17  A    between atoms: _34  and  _35
REMARK   18  A    between atoms: _38  and  _39
REMARK   19  A    between atoms: _44  and  _46
REMARK   20  A    between atoms: _46  and  _47
REMARK   21  A    between atoms: _46  and  _49
REMARK   22  A    between atoms: _49  and  _50
REMARK   23  A    between atoms: _55  and  _56
REMARK   24  A    between atoms: _58  and  _60
REMARK   25  A    between atoms: _60  and  _61
REMARK   26  A    between atoms: _60  and  _63
REMARK   27  A    between atoms: _66  and  _68
REMARK   28  A    between atoms: _68  and  _69
REMARK   29  A    between atoms: _68  and  _71
REMARK   30  A    between atoms: _71  and  _72
REMARK   31  A    between atoms: _72  and  _73
REMARK   32  A    between atoms: _73  and  _74
REMARK   33  A    between atoms: _74  and  _75
REMARK   34  A    between atoms: _79  and  _81
REMARK   35  A    between atoms: _81  and  _82
REMARK   36  A    between atoms: _81  and  _84
REMARK   37  A    between atoms: _84  and  _85
REMARK   38  A    between atoms: _90  and  _91
REMARK   39  A    between atoms: _93  and  _95
REMARK   40  A    between atoms: _95  and  _96
REMARK   41  A    between atoms: _98  and  _100
REMARK   42  A    between atoms: _100  and  _101
REMARK   43  A    between atoms: _104  and  _106
REMARK   44  A    between atoms: _106  and  _107
REMARK   45  A    between atoms: _106  and  _109
REMARK   46  A    between atoms: _109  and  _110
REMARK   47  A    between atoms: _110  and  _111
REMARK   48  A    between atoms: _113  and  _115
REMARK   49  A    between atoms: _115  and  _116
REMARK   50  A    between atoms: _115  and  _118
REMARK   51  A    between atoms: _121  and  _123
REMARK   52  A    between atoms: _123  and  _124
REMARK   53  A    between atoms: _128  and  _129
REMARK   54  A    between atoms: _134  and  _136
REMARK   55  A    between atoms: _136  and  _137
REMARK   56  A    between atoms: _136  and  _139
REMARK   57  A    between atoms: _139  and  _140
REMARK   58  A    between atoms: _143  and  _145
REMARK   59  A    between atoms: _145  and  _146
REMARK   60  A    between atoms: _145  and  _148
REMARK   61  A    between atoms: _148  and  _149
REMARK   62  A    between atoms: _152  and  _154
REMARK   63  A    between atoms: _154  and  _155
REMARK   64  A    between atoms: _154  and  _157
REMARK   65  A    between atoms: _157  and  _158
REMARK   66  A    between atoms: _161  and  _163
REMARK   67  A    between atoms: _163  and  _164
REMARK   68  A    between atoms: _163  and  _166
REMARK   69  A    between atoms: _166  and  _167
REMARK   70  A    between atoms: _170  and  _172
REMARK   71  A    between atoms: _172  and  _173
REMARK   72  A    between atoms: _172  and  _175
REMARK   73  A    between atoms: _175  and  _176
REMARK   74  A    between atoms: _176  and  _177
REMARK   75  A    between atoms: _177  and  _178
REMARK   76  A    between atoms: _187  and  _189
REMARK   77  A    between atoms: _189  and  _190
REMARK   78  A    between atoms: _189  and  _192
REMARK   79  A    between atoms: _192  and  _193
REMARK   80  A    between atoms: _199  and  _201
REMARK   81  A    between atoms: _201  and  _202
REMARK   82  A    between atoms: _201  and  _204
REMARK   83  A    between atoms: _204  and  _205
REMARK   84  A    between atoms: _205  and  _206
REMARK   85  A    between atoms: _208  and  _210
REMARK   86  A    between atoms: _210  and  _211
REMARK   87  A    between atoms: _210  and  _213
REMARK   88  A    between atoms: _213  and  _214
REMARK   89  A    between atoms: _217  and  _219
REMARK   90  A    between atoms: _219  and  _220
REMARK   91  A    between atoms: _222  and  _224
REMARK   92  A    between atoms: _224  and  _225
REMARK   93  A    between atoms: _224  and  _227
REMARK   94  A    between atoms: _227  and  _228
REMARK   95  A    between atoms: _231  and  _233
REMARK   96  A    between atoms: _233  and  _234
REMARK   97  A    between atoms: _233  and  _236
REMARK   98  A    between atoms: _236  and  _237
REMARK   99  A    between atoms: _239  and  _241
REMARK  100  A    between atoms: _241  and  _242
REMARK  101  A    between atoms: _244  and  _246
REMARK  102  A    between atoms: _246  and  _247
REMARK  103  A    between atoms: _246  and  _249
REMARK  104  A    between atoms: _249  and  _250
REMARK  105  A    between atoms: _253  and  _255
REMARK  106  A    between atoms: _255  and  _256
REMARK  107  A    between atoms: _255  and  _258
REMARK  108  A    between atoms: _258  and  _259
REMARK  109  A    between atoms: _262  and  _264
REMARK  110  A    between atoms: _264  and  _265
REMARK  111  A    between atoms: _264  and  _267
REMARK  112  A    between atoms: _267  and  _268
REMARK  113  A    between atoms: _271  and  _273
REMARK  114  A    between atoms: _273  and  _274
REMARK  115  A    between atoms: _273  and  _276
REMARK  116  A    between atoms: _276  and  _277
REMARK  117  A    between atoms: _279  and  _281
REMARK  118  A    between atoms: _281  and  _282
REMARK  119  A    between atoms: _284  and  _286
REMARK  120  A    between atoms: _286  and  _287
REMARK  121  A    between atoms: _286  and  _289
REMARK  122  A    between atoms: _289  and  _290
REMARK  123  A    between atoms: _292  and  _294
REMARK  124  A    between atoms: _294  and  _295
REMARK  125  A    between atoms: _294  and  _297
REMARK  126  A    between atoms: _297  and  _298
REMARK  127  A    between atoms: _301  and  _303
REMARK  128  A    between atoms: _303  and  _304
REMARK  129  A    between atoms: _303  and  _306
REMARK  130  A    between atoms: _306  and  _307
REMARK  131  A    between atoms: _307  and  _308
REMARK  132  A    between atoms: _308  and  _309
REMARK  133  A    between atoms: _309  and  _310
REMARK  134  A    between atoms: _314  and  _316
REMARK  135  A    between atoms: _316  and  _317
REMARK  136  A    between atoms: _316  and  _319
REMARK  137  A    between atoms: _319  and  _320
REMARK  138  A    between atoms: _320  and  _321
REMARK  139  A    between atoms: _324  and  _326
REMARK  140  A    between atoms: _326  and  _327
REMARK  141  A    between atoms: _326  and  _329
REMARK  142  A    between atoms: _329  and  _330
REMARK  143  A    between atoms: _336  and  _338
REMARK  144  A    between atoms: _338  and  _339
REMARK  145  A    between atoms: _338  and  _341
REMARK  146  A    between atoms: _341  and  _342
REMARK  147  A    between atoms: _348  and  _350
REMARK  148  A    between atoms: _350  and  _351
REMARK  149  A    between atoms: _350  and  _353
REMARK  150  A    between atoms: _356  and  _358
REMARK  151  A    between atoms: _358  and  _359
REMARK  152  A    between atoms: _358  and  _361
REMARK  153  A    between atoms: _361  and  _362
REMARK  154  A    between atoms: _365  and  _367
REMARK  155  A    between atoms: _367  and  _368
REMARK  156  A    between atoms: _371  and  _373
REMARK  157  A    between atoms: _373  and  _374
REMARK  158  A    between atoms: _373  and  _376
REMARK  159  A    between atoms: _379  and  _381
REMARK  160  A    between atoms: _381  and  _382
REMARK  161  A    between atoms: _381  and  _384
REMARK  162  A    between atoms: _384  and  _385
REMARK  163  A    between atoms: _390  and  _391
REMARK  164  A    between atoms: _393  and  _395
REMARK  165  A    between atoms: _395  and  _396
REMARK  166  A    between atoms: _395  and  _398
REMARK  167  A    between atoms: _398  and  _399
REMARK  168  A    between atoms: _402  and  _404
REMARK  169  A    between atoms: _404  and  _405
REMARK  170  A    between atoms: _404  and  _407
REMARK  171  A    between atoms: _407  and  _408
REMARK  172  A    between atoms: _411  and  _413
REMARK  173  A    between atoms: _413  and  _414
REMARK  174  A    between atoms: _413  and  _416
REMARK  175  A    between atoms: _416  and  _417
REMARK  176  A    between atoms: _417  and  _418
REMARK  177  A    between atoms: _421  and  _423
REMARK  178  A    between atoms: _423  and  _424
REMARK  179  A    between atoms: _423  and  _426
REMARK  180  A    between atoms: _426  and  _427
REMARK  181  A    between atoms: _429  and  _431
REMARK  182  A    between atoms: _431  and  _432
REMARK  183  A    between atoms: _431  and  _434
REMARK  184  A    between atoms: _434  and  _435
REMARK  185  A    between atoms: _438  and  _440
REMARK  186  A    between atoms: _440  and  _441
REMARK  187  A    between atoms: _440  and  _443
REMARK  188  A    between atoms: _443  and  _444
REMARK  189  A    between atoms: _444  and  _445
REMARK  190  A    between atoms: _447  and  _449
REMARK  191  A    between atoms: _449  and  _450
REMARK  192  A    between atoms: _449  and  _452
REMARK  193  A    between atoms: _452  and  _453
REMARK  194  A    between atoms: _458  and  _460
REMARK  195  A    between atoms: _460  and  _461
REMARK  196  A    between atoms: _460  and  _463
REMARK  197  A    between atoms: _463  and  _464
REMARK  198  A    between atoms: _464  and  _465
REMARK  199  A    between atoms: _468  and  _470
REMARK  200  A    between atoms: _470  and  _471
REMARK  201  A    between atoms: _470  and  _473
REMARK  202  A    between atoms: _473  and  _474
REMARK  203  A    between atoms: _479  and  _480
REMARK  204  A    between atoms: _482  and  _484
REMARK  205  A    between atoms: _484  and  _485
REMARK  206  A    between atoms: _484  and  _487
REMARK  207  A    between atoms: _487  and  _488
REMARK  208  A    between atoms: _491  and  _493
REMARK  209  A    between atoms: _493  and  _494
REMARK  210  A    between atoms: _493  and  _496
REMARK  211  A    between atoms: _496  and  _497
REMARK  212  A    between atoms: _497  and  _498
REMARK  213  A    between atoms: _498  and  _499
REMARK  214  A    between atoms: _499  and  _500
REMARK  215  A    between atoms: _504  and  _506
REMARK  216  A    between atoms: _506  and  _507
REMARK  217  A    between atoms: _509  and  _511
REMARK  218  A    between atoms: _511  and  _512
REMARK  219  A    between atoms: _511  and  _514
REMARK  220  A    between atoms: _514  and  _515
REMARK  221  A    between atoms: _520  and  _521
REMARK  222  A    between atoms: _523  and  _525
REMARK  223  A    between atoms: _525  and  _526
REMARK  224  A    between atoms: _528  and  _530
REMARK  225  A    between atoms: _530  and  _531
REMARK  226  A    between atoms: _530  and  _533
REMARK  227  A    between atoms: _533  and  _534
REMARK  228  A    between atoms: _534  and  _535
REMARK  229  A    between atoms: _535  and  _536
REMARK  230  A    between atoms: _536  and  _537
REMARK  231  A    between atoms: _541  and  _543
REMARK  232  A    between atoms: _543  and  _544
REMARK  233  A    between atoms: _543  and  _546
REMARK  234  A    between atoms: _546  and  _547
REMARK                            x       y       z     vdW  Elec       q    Type
REMARK                         _______ _______ _______ _____ _____    ______ ____
ROOT
ATOM      1  O   HOH     1       6.559  34.501  28.760  0.00  0.00    +0.000 OA
ENDROOT
TORSDOF 0
REMARK  Name = ../refined-set-2016/2p2a/2p2a_pocket.pdb
REMARK  234 active torsions:
REMARK  status: ('A' for Active; 'I' for Inactive)
REMARK    1  A    between atoms: _1  and  _3
REMARK    2  A    between atoms: _3  and  _4
REMARK    3  A    between atoms: _3  and  _6
REMARK    4  A    between atoms: _6  and  _7
REMARK    5  A    between atoms: _10  and  _12
REMARK    6  A    between atoms: _12  and  _13
REMARK    7  A    between atoms: _12  and  _15
REMARK    8  A    between atoms: _15  and  _16
REMARK    9  A    between atoms: _19  and  _21
REMARK   10  A    between atoms: _21  and  _22
REMARK   11  A    between atoms: _21  and  _24
REMARK   12  A    between atoms: _24  and  _25
REMARK   13  A    between atoms: _25  and  _26
REMARK   14  A    between atoms: _29  and  _31
REMARK   15  A    between atoms: _31  and  _32
REMARK   16  A    between atoms: _31  and  _34
REMARK   17  A    between atoms: _34  and  _35
REMARK   18  A    between atoms: _38  and  _39
REMARK   19  A    between atoms: _44  and  _46
REMARK   20  A    between atoms: _46  and  _47
REMARK   21  A    between atoms: _46  and  _49
REMARK   22  A    between atoms: _49  and  _50
REMARK   23  A    between atoms: _55  and  _56
REMARK   24  A    between atoms: _58  and  _60
REMARK   25  A    between atoms: _60  and  _61
REMARK   26  A    between atoms: _60  and  _63
REMARK   27  A    between atoms: _66  and  _68
REMARK   28  A    between atoms: _68  and  _69
REMARK   29  A    between atoms: _68  and  _71
REMARK   30  A    between atoms: _71  and  _72
REMARK   31  A    between atoms: _72  and  _73
REMARK   32  A    between atoms: _73  and  _74
REMARK   33  A    between atoms: _74  and  _75
REMARK   34  A    between atoms: _79  and  _81
REMARK   35  A    between atoms: _81  and  _82
REMARK   36  A    between atoms: _81  and  _84
REMARK   37  A    between atoms: _84  and  _85
REMARK   38  A    between atoms: _90  and  _91
REMARK   39  A    between atoms: _93  and  _95
REMARK   40  A    between atoms: _95  and  _96
REMARK   41  A    between atoms: _98  and  _100
REMARK   42  A    between atoms: _100  and  _101
REMARK   43  A    between atoms: _104  and  _106
REMARK   44  A    between atoms: _106  and  _107
REMARK   45  A    between atoms: _106  and  _109
REMARK   46  A    between atoms: _109  and  _110
REMARK   47  A    between atoms: _110  and  _111
REMARK   48  A    between atoms: _113  and  _115
REMARK   49  A    between atoms: _115  and  _116
REMARK   50  A    between atoms: _115  and  _118
REMARK   51  A    between atoms: _121  and  _123
REMARK   52  A    between atoms: _123  and  _124
REMARK   53  A    between atoms: _128  and  _129
REMARK   54  A    between atoms: _134  and  _136
REMARK   55  A    between atoms: _136  and  _137
REMARK   56  A    between atoms: _136  and  _139
REMARK   57  A    between atoms: _139  and  _140
REMARK   58  A    between atoms: _143  and  _145
REMARK   59  A    between atoms: _145  and  _146
REMARK   60  A    between atoms: _145  and  _148
REMARK   61  A    between atoms: _148  and  _149
REMARK   62  A    between atoms: _152  and  _154
REMARK   63  A    between atoms: _154  and  _155
REMARK   64  A    between atoms: _154  and  _157
REMARK   65  A    between atoms: _157  and  _158
REMARK   66  A    between atoms: _161  and  _163
REMARK   67  A    between atoms: _163  and  _164
REMARK   68  A    between atoms: _163  and  _166
REMARK   69  A    between atoms: _166  and  _167
REMARK   70  A    between atoms: _170  and  _172
REMARK   71  A    between atoms: _172  and  _173
REMARK   72  A    between atoms: _172  and  _175
REMARK   73  A    between atoms: _175  and  _176
REMARK   74  A    between atoms: _176  and  _177
REMARK   75  A    between atoms: _177  and  _178
REMARK   76  A    between atoms: _187  and  _189
REMARK   77  A    between atoms: _189  and  _190
REMARK   78  A    between atoms: _189  and  _192
REMARK   79  A    between atoms: _192  and  _193
REMARK   80  A    between atoms: _199  and  _201
REMARK   81  A    between atoms: _201  and  _202
REMARK   82  A    between atoms: _201  and  _204
REMARK   83  A    between atoms: _204  and  _205
REMARK   84  A    between atoms: _205  and  _206
REMARK   85  A    between atoms: _208  and  _210
REMARK   86  A    between atoms: _210  and  _211
REMARK   87  A    between atoms: _210  and  _213
REMARK   88  A    between atoms: _213  and  _214
REMARK   89  A    between atoms: _217  and  _219
REMARK   90  A    between atoms: _219  and  _220
REMARK   91  A    between atoms: _222  and  _224
REMARK   92  A    between atoms: _224  and  _225
REMARK   93  A    between atoms: _224  and  _227
REMARK   94  A    between atoms: _227  and  _228
REMARK   95  A    between atoms: _231  and  _233
REMARK   96  A    between atoms: _233  and  _234
REMARK   97  A    between atoms: _233  and  _236
REMARK   98  A    between atoms: _236  and  _237
REMARK   99  A    between atoms: _239  and  _241
REMARK  100  A    between atoms: _241  and  _242
REMARK  101  A    between atoms: _244  and  _246
REMARK  102  A    between atoms: _246  and  _247
REMARK  103  A    between atoms: _246  and  _249
REMARK  104  A    between atoms: _249  and  _250
REMARK  105  A    between atoms: _253  and  _255
REMARK  106  A    between atoms: _255  and  _256
REMARK  107  A    between atoms: _255  and  _258
REMARK  108  A    between atoms: _258  and  _259
REMARK  109  A    between atoms: _262  and  _264
REMARK  110  A    between atoms: _264  and  _265
REMARK  111  A    between atoms: _264  and  _267
REMARK  112  A    between atoms: _267  and  _268
REMARK  113  A    between atoms: _271  and  _273
REMARK  114  A    between atoms: _273  and  _274
REMARK  115  A    between atoms: _273  and  _276
REMARK  116  A    between atoms: _276  and  _277
REMARK  117  A    between atoms: _279  and  _281
REMARK  118  A    between atoms: _281  and  _282
REMARK  119  A    between atoms: _284  and  _286
REMARK  120  A    between atoms: _286  and  _287
REMARK  121  A    between atoms: _286  and  _289
REMARK  122  A    between atoms: _289  and  _290
REMARK  123  A    between atoms: _292  and  _294
REMARK  124  A    between atoms: _294  and  _295
REMARK  125  A    between atoms: _294  and  _297
REMARK  126  A    between atoms: _297  and  _298
REMARK  127  A    between atoms: _301  and  _303
REMARK  128  A    between atoms: _303  and  _304
REMARK  129  A    between atoms: _303  and  _306
REMARK  130  A    between atoms: _306  and  _307
REMARK  131  A    between atoms: _307  and  _308
REMARK  132  A    between atoms: _308  and  _309
REMARK  133  A    between atoms: _309  and  _310
REMARK  134  A    between atoms: _314  and  _316
REMARK  135  A    between atoms: _316  and  _317
REMARK  136  A    between atoms: _316  and  _319
REMARK  137  A    between atoms: _319  and  _320
REMARK  138  A    between atoms: _320  and  _321
REMARK  139  A    between atoms: _324  and  _326
REMARK  140  A    between atoms: _326  and  _327
REMARK  141  A    between atoms: _326  and  _329
REMARK  142  A    between atoms: _329  and  _330
REMARK  143  A    between atoms: _336  and  _338
REMARK  144  A    between atoms: _338  and  _339
REMARK  145  A    between atoms: _338  and  _341
REMARK  146  A    between atoms: _341  and  _342
REMARK  147  A    between atoms: _348  and  _350
REMARK  148  A    between atoms: _350  and  _351
REMARK  149  A    between atoms: _350  and  _353
REMARK  150  A    between atoms: _356  and  _358
REMARK  151  A    between atoms: _358  and  _359
REMARK  152  A    between atoms: _358  and  _361
REMARK  153  A    between atoms: _361  and  _362
REMARK  154  A    between atoms: _365  and  _367
REMARK  155  A    between atoms: _367  and  _368
REMARK  156  A    between atoms: _371  and  _373
REMARK  157  A    between atoms: _373  and  _374
REMARK  158  A    between atoms: _373  and  _376
REMARK  159  A    between atoms: _379  and  _381
REMARK  160  A    between atoms: _381  and  _382
REMARK  161  A    between atoms: _381  and  _384
REMARK  162  A    between atoms: _384  and  _385
REMARK  163  A    between atoms: _390  and  _391
REMARK  164  A    between atoms: _393  and  _395
REMARK  165  A    between atoms: _395  and  _396
REMARK  166  A    between atoms: _395  and  _398
REMARK  167  A    between atoms: _398  and  _399
REMARK  168  A    between atoms: _402  and  _404
REMARK  169  A    between atoms: _404  and  _405
REMARK  170  A    between atoms: _404  and  _407
REMARK  171  A    between atoms: _407  and  _408
REMARK  172  A    between atoms: _411  and  _413
REMARK  173  A    between atoms: _413  and  _414
REMARK  174  A    between atoms: _413  and  _416
REMARK  175  A    between atoms: _416  and  _417
REMARK  176  A    between atoms: _417  and  _418
REMARK  177  A    between atoms: _421  and  _423
REMARK  178  A    between atoms: _423  and  _424
REMARK  179  A    between atoms: _423  and  _426
REMARK  180  A    between atoms: _426  and  _427
REMARK  181  A    between atoms: _429  and  _431
REMARK  182  A    between atoms: _431  and  _432
REMARK  183  A    between atoms: _431  and  _434
REMARK  184  A    between atoms: _434  and  _435
REMARK  185  A    between atoms: _438  and  _440
REMARK  186  A    between atoms: _440  and  _441
REMARK  187  A    between atoms: _440  and  _443
REMARK  188  A    between atoms: _443  and  _444
REMARK  189  A    between atoms: _444  and  _445
REMARK  190  A    between atoms: _447  and  _449
REMARK  191  A    between atoms: _449  and  _450
REMARK  192  A    between atoms: _449  and  _452
REMARK  193  A    between atoms: _452  and  _453
REMARK  194  A    between atoms: _458  and  _460
REMARK  195  A    between atoms: _460  and  _461
REMARK  196  A    between atoms: _460  and  _463
REMARK  197  A    between atoms: _463  and  _464
REMARK  198  A    between atoms: _464  and  _465
REMARK  199  A    between atoms: _468  and  _470
REMARK  200  A    between atoms: _470  and  _471
REMARK  201  A    between atoms: _470  and  _473
REMARK  202  A    between atoms: _473  and  _474
REMARK  203  A    between atoms: _479  and  _480
REMARK  204  A    between atoms: _482  and  _484
REMARK  205  A    between atoms: _484  and  _485
REMARK  206  A    between atoms: _484  and  _487
REMARK  207  A    between atoms: _487  and  _488
REMARK  208  A    between atoms: _491  and  _493
REMARK  209  A    between atoms: _493  and  _494
REMARK  210  A    between atoms: _493  and  _496
REMARK  211  A    between atoms: _496  and  _497
REMARK  212  A    between atoms: _497  and  _498
REMARK  213  A    between atoms: _498  and  _499
REMARK  214  A    between atoms: _499  and  _500
REMARK  215  A    between atoms: _504  and  _506
REMARK  216  A    between atoms: _506  and  _507
REMARK  217  A    between atoms: _509  and  _511
REMARK  218  A    between atoms: _511  and  _512
REMARK  219  A    between atoms: _511  and  _514
REMARK  220  A    between atoms: _514  and  _515
REMARK  221  A    between atoms: _520  and  _521
REMARK  222  A    between atoms: _523  and  _525
REMARK  223  A    between atoms: _525  and  _526
REMARK  224  A    between atoms: _528  and  _530
REMARK  225  A    between atoms: _530  and  _531
REMARK  226  A    between atoms: _530  and  _533
REMARK  227  A    between atoms: _533  and  _534
REMARK  228  A    between atoms: _534  and  _535
REMARK  229  A    between atoms: _535  and  _536
REMARK  230  A    between atoms: _536  and  _537
REMARK  231  A    between atoms: _541  and  _543
REMARK  232  A    between atoms: _543  and  _544
REMARK  233  A    between atoms: _543  and  _546
REMARK  234  A    between atoms: _546  and  _547
REMARK                            x       y       z     vdW  Elec       q    Type
REMARK                         _______ _______ _______ _____ _____    ______ ____
ROOT
ATOM      1  O   HOH     1       4.697  31.063  20.706  0.00  0.00    +0.000 OA
ENDROOT
TORSDOF 0
REMARK  Name = ../refined-set-2016/2p2a/2p2a_pocket.pdb
REMARK  234 active torsions:
REMARK  status: ('A' for Active; 'I' for Inactive)
REMARK    1  A    between atoms: _1  and  _3
REMARK    2  A    between atoms: _3  and  _4
REMARK    3  A    between atoms: _3  and  _6
REMARK    4  A    between atoms: _6  and  _7
REMARK    5  A    between atoms: _10  and  _12
REMARK    6  A    between atoms: _12  and  _13
REMARK    7  A    between atoms: _12  and  _15
REMARK    8  A    between atoms: _15  and  _16
REMARK    9  A    between atoms: _19  and  _21
REMARK   10  A    between atoms: _21  and  _22
REMARK   11  A    between atoms: _21  and  _24
REMARK   12  A    between atoms: _24  and  _25
REMARK   13  A    between atoms: _25  and  _26
REMARK   14  A    between atoms: _29  and  _31
REMARK   15  A    between atoms: _31  and  _32
REMARK   16  A    between atoms: _31  and  _34
REMARK   17  A    between atoms: _34  and  _35
REMARK   18  A    between atoms: _38  and  _39
REMARK   19  A    between atoms: _44  and  _46
REMARK   20  A    between atoms: _46  and  _47
REMARK   21  A    between atoms: _46  and  _49
REMARK   22  A    between atoms: _49  and  _50
REMARK   23  A    between atoms: _55  and  _56
REMARK   24  A    between atoms: _58  and  _60
REMARK   25  A    between atoms: _60  and  _61
REMARK   26  A    between atoms: _60  and  _63
REMARK   27  A    between atoms: _66  and  _68
REMARK   28  A    between atoms: _68  and  _69
REMARK   29  A    between atoms: _68  and  _71
REMARK   30  A    between atoms: _71  and  _72
REMARK   31  A    between atoms: _72  and  _73
REMARK   32  A    between atoms: _73  and  _74
REMARK   33  A    between atoms: _74  and  _75
REMARK   34  A    between atoms: _79  and  _81
REMARK   35  A    between atoms: _81  and  _82
REMARK   36  A    between atoms: _81  and  _84
REMARK   37  A    between atoms: _84  and  _85
REMARK   38  A    between atoms: _90  and  _91
REMARK   39  A    between atoms: _93  and  _95
REMARK   40  A    between atoms: _95  and  _96
REMARK   41  A    between atoms: _98  and  _100
REMARK   42  A    between atoms: _100  and  _101
REMARK   43  A    between atoms: _104  and  _106
REMARK   44  A    between atoms: _106  and  _107
REMARK   45  A    between atoms: _106  and  _109
REMARK   46  A    between atoms: _109  and  _110
REMARK   47  A    between atoms: _110  and  _111
REMARK   48  A    between atoms: _113  and  _115
REMARK   49  A    between atoms: _115  and  _116
REMARK   50  A    between atoms: _115  and  _118
REMARK   51  A    between atoms: _121  and  _123
REMARK   52  A    between atoms: _123  and  _124
REMARK   53  A    between atoms: _128  and  _129
REMARK   54  A    between atoms: _134  and  _136
REMARK   55  A    between atoms: _136  and  _137
REMARK   56  A    between atoms: _136  and  _139
REMARK   57  A    between atoms: _139  and  _140
REMARK   58  A    between atoms: _143  and  _145
REMARK   59  A    between atoms: _145  and  _146
REMARK   60  A    between atoms: _145  and  _148
REMARK   61  A    between atoms: _148  and  _149
REMARK   62  A    between atoms: _152  and  _154
REMARK   63  A    between atoms: _154  and  _155
REMARK   64  A    between atoms: _154  and  _157
REMARK   65  A    between atoms: _157  and  _158
REMARK   66  A    between atoms: _161  and  _163
REMARK   67  A    between atoms: _163  and  _164
REMARK   68  A    between atoms: _163  and  _166
REMARK   69  A    between atoms: _166  and  _167
REMARK   70  A    between atoms: _170  and  _172
REMARK   71  A    between atoms: _172  and  _173
REMARK   72  A    between atoms: _172  and  _175
REMARK   73  A    between atoms: _175  and  _176
REMARK   74  A    between atoms: _176  and  _177
REMARK   75  A    between atoms: _177  and  _178
REMARK   76  A    between atoms: _187  and  _189
REMARK   77  A    between atoms: _189  and  _190
REMARK   78  A    between atoms: _189  and  _192
REMARK   79  A    between atoms: _192  and  _193
REMARK   80  A    between atoms: _199  and  _201
REMARK   81  A    between atoms: _201  and  _202
REMARK   82  A    between atoms: _201  and  _204
REMARK   83  A    between atoms: _204  and  _205
REMARK   84  A    between atoms: _205  and  _206
REMARK   85  A    between atoms: _208  and  _210
REMARK   86  A    between atoms: _210  and  _211
REMARK   87  A    between atoms: _210  and  _213
REMARK   88  A    between atoms: _213  and  _214
REMARK   89  A    between atoms: _217  and  _219
REMARK   90  A    between atoms: _219  and  _220
REMARK   91  A    between atoms: _222  and  _224
REMARK   92  A    between atoms: _224  and  _225
REMARK   93  A    between atoms: _224  and  _227
REMARK   94  A    between atoms: _227  and  _228
REMARK   95  A    between atoms: _231  and  _233
REMARK   96  A    between atoms: _233  and  _234
REMARK   97  A    between atoms: _233  and  _236
REMARK   98  A    between atoms: _236  and  _237
REMARK   99  A    between atoms: _239  and  _241
REMARK  100  A    between atoms: _241  and  _242
REMARK  101  A    between atoms: _244  and  _246
REMARK  102  A    between atoms: _246  and  _247
REMARK  103  A    between atoms: _246  and  _249
REMARK  104  A    between atoms: _249  and  _250
REMARK  105  A    between atoms: _253  and  _255
REMARK  106  A    between atoms: _255  and  _256
REMARK  107  A    between atoms: _255  and  _258
REMARK  108  A    between atoms: _258  and  _259
REMARK  109  A    between atoms: _262  and  _264
REMARK  110  A    between atoms: _264  and  _265
REMARK  111  A    between atoms: _264  and  _267
REMARK  112  A    between atoms: _267  and  _268
REMARK  113  A    between atoms: _271  and  _273
REMARK  114  A    between atoms: _273  and  _274
REMARK  115  A    between atoms: _273  and  _276
REMARK  116  A    between atoms: _276  and  _277
REMARK  117  A    between atoms: _279  and  _281
REMARK  118  A    between atoms: _281  and  _282
REMARK  119  A    between atoms: _284  and  _286
REMARK  120  A    between atoms: _286  and  _287
REMARK  121  A    between atoms: _286  and  _289
REMARK  122  A    between atoms: _289  and  _290
REMARK  123  A    between atoms: _292  and  _294
REMARK  124  A    between atoms: _294  and  _295
REMARK  125  A    between atoms: _294  and  _297
REMARK  126  A    between atoms: _297  and  _298
REMARK  127  A    between atoms: _301  and  _303
REMARK  128  A    between atoms: _303  and  _304
REMARK  129  A    between atoms: _303  and  _306
REMARK  130  A    between atoms: _306  and  _307
REMARK  131  A    between atoms: _307  and  _308
REMARK  132  A    between atoms: _308  and  _309
REMARK  133  A    between atoms: _309  and  _310
REMARK  134  A    between atoms: _314  and  _316
REMARK  135  A    between atoms: _316  and  _317
REMARK  136  A    between atoms: _316  and  _319
REMARK  137  A    between atoms: _319  and  _320
REMARK  138  A    between atoms: _320  and  _321
REMARK  139  A    between atoms: _324  and  _326
REMARK  140  A    between atoms: _326  and  _327
REMARK  141  A    between atoms: _326  and  _329
REMARK  142  A    between atoms: _329  and  _330
REMARK  143  A    between atoms: _336  and  _338
REMARK  144  A    between atoms: _338  and  _339
REMARK  145  A    between atoms: _338  and  _341
REMARK  146  A    between atoms: _341  and  _342
REMARK  147  A    between atoms: _348  and  _350
REMARK  148  A    between atoms: _350  and  _351
REMARK  149  A    between atoms: _350  and  _353
REMARK  150  A    between atoms: _356  and  _358
REMARK  151  A    between atoms: _358  and  _359
REMARK  152  A    between atoms: _358  and  _361
REMARK  153  A    between atoms: _361  and  _362
REMARK  154  A    between atoms: _365  and  _367
REMARK  155  A    between atoms: _367  and  _368
REMARK  156  A    between atoms: _371  and  _373
REMARK  157  A    between atoms: _373  and  _374
REMARK  158  A    between atoms: _373  and  _376
REMARK  159  A    between atoms: _379  and  _381
REMARK  160  A    between atoms: _381  and  _382
REMARK  161  A    between atoms: _381  and  _384
REMARK  162  A    between atoms: _384  and  _385
REMARK  163  A    between atoms: _390  and  _391
REMARK  164  A    between atoms: _393  and  _395
REMARK  165  A    between atoms: _395  and  _396
REMARK  166  A    between atoms: _395  and  _398
REMARK  167  A    between atoms: _398  and  _399
REMARK  168  A    between atoms: _402  and  _404
REMARK  169  A    between atoms: _404  and  _405
REMARK  170  A    between atoms: _404  and  _407
REMARK  171  A    between atoms: _407  and  _408
REMARK  172  A    between atoms: _411  and  _413
REMARK  173  A    between atoms: _413  and  _414
REMARK  174  A    between atoms: _413  and  _416
REMARK  175  A    between atoms: _416  and  _417
REMARK  176  A    between atoms: _417  and  _418
REMARK  177  A    between atoms: _421  and  _423
REMARK  178  A    between atoms: _423  and  _424
REMARK  179  A    between atoms: _423  and  _426
REMARK  180  A    between atoms: _426  and  _427
REMARK  181  A    between atoms: _429  and  _431
REMARK  182  A    between atoms: _431  and  _432
REMARK  183  A    between atoms: _431  and  _434
REMARK  184  A    between atoms: _434  and  _435
REMARK  185  A    between atoms: _438  and  _440
REMARK  186  A    between atoms: _440  and  _441
REMARK  187  A    between atoms: _440  and  _443
REMARK  188  A    between atoms: _443  and  _444
REMARK  189  A    between atoms: _444  and  _445
REMARK  190  A    between atoms: _447  and  _449
REMARK  191  A    between atoms: _449  and  _450
REMARK  192  A    between atoms: _449  and  _452
REMARK  193  A    between atoms: _452  and  _453
REMARK  194  A    between atoms: _458  and  _460
REMARK  195  A    between atoms: _460  and  _461
REMARK  196  A    between atoms: _460  and  _463
REMARK  197  A    between atoms: _463  and  _464
REMARK  198  A    between atoms: _464  and  _465
REMARK  199  A    between atoms: _468  and  _470
REMARK  200  A    between atoms: _470  and  _471
REMARK  201  A    between atoms: _470  and  _473
REMARK  202  A    between atoms: _473  and  _474
REMARK  203  A    between atoms: _479  and  _480
REMARK  204  A    between atoms: _482  and  _484
REMARK  205  A    between atoms: _484  and  _485
REMARK  206  A    between atoms: _484  and  _487
REMARK  207  A    between atoms: _487  and  _488
REMARK  208  A    between atoms: _491  and  _493
REMARK  209  A    between atoms: _493  and  _494
REMARK  210  A    between atoms: _493  and  _496
REMARK  211  A    between atoms: _496  and  _497
REMARK  212  A    between atoms: _497  and  _498
REMARK  213  A    between atoms: _498  and  _499
REMARK  214  A    between atoms: _499  and  _500
REMARK  215  A    between atoms: _504  and  _506
REMARK  216  A    between atoms: _506  and  _507
REMARK  217  A    between atoms: _509  and  _511
REMARK  218  A    between atoms: _511  and  _512
REMARK  219  A    between atoms: _511  and  _514
REMARK  220  A    between atoms: _514  and  _515
REMARK  221  A    between atoms: _520  and  _521
REMARK  222  A    between atoms: _523  and  _525
REMARK  223  A    between atoms: _525  and  _526
REMARK  224  A    between atoms: _528  and  _530
REMARK  225  A    between atoms: _530  and  _531
REMARK  226  A    between atoms: _530  and  _533
REMARK  227  A    between atoms: _533  and  _534
REMARK  228  A    between atoms: _534  and  _535
REMARK  229  A    between atoms: _535  and  _536
REMARK  230  A    between atoms: _536  and  _537
REMARK  231  A    between atoms: _541  and  _543
REMARK  232  A    between atoms: _543  and  _544
REMARK  233  A    between atoms: _543  and  _546
REMARK  234  A    between atoms: _546  and  _547
REMARK                            x       y       z     vdW  Elec       q    Type
REMARK                         _______ _______ _______ _____ _____    ______ ____
ROOT
ATOM      1  O   HOH     1       2.550  30.939  18.440  0.00  0.00    +0.000 OA
ENDROOT
TORSDOF 0
REMARK  Name = ../refined-set-2016/2p2a/2p2a_pocket.pdb
REMARK  234 active torsions:
REMARK  status: ('A' for Active; 'I' for Inactive)
REMARK    1  A    between atoms: _1  and  _3
REMARK    2  A    between atoms: _3  and  _4
REMARK    3  A    between atoms: _3  and  _6
REMARK    4  A    between atoms: _6  and  _7
REMARK    5  A    between atoms: _10  and  _12
REMARK    6  A    between atoms: _12  and  _13
REMARK    7  A    between atoms: _12  and  _15
REMARK    8  A    between atoms: _15  and  _16
REMARK    9  A    between atoms: _19  and  _21
REMARK   10  A    between atoms: _21  and  _22
REMARK   11  A    between atoms: _21  and  _24
REMARK   12  A    between atoms: _24  and  _25
REMARK   13  A    between atoms: _25  and  _26
REMARK   14  A    between atoms: _29  and  _31
REMARK   15  A    between atoms: _31  and  _32
REMARK   16  A    between atoms: _31  and  _34
REMARK   17  A    between atoms: _34  and  _35
REMARK   18  A    between atoms: _38  and  _39
REMARK   19  A    between atoms: _44  and  _46
REMARK   20  A    between atoms: _46  and  _47
REMARK   21  A    between atoms: _46  and  _49
REMARK   22  A    between atoms: _49  and  _50
REMARK   23  A    between atoms: _55  and  _56
REMARK   24  A    between atoms: _58  and  _60
REMARK   25  A    between atoms: _60  and  _61
REMARK   26  A    between atoms: _60  and  _63
REMARK   27  A    between atoms: _66  and  _68
REMARK   28  A    between atoms: _68  and  _69
REMARK   29  A    between atoms: _68  and  _71
REMARK   30  A    between atoms: _71  and  _72
REMARK   31  A    between atoms: _72  and  _73
REMARK   32  A    between atoms: _73  and  _74
REMARK   33  A    between atoms: _74  and  _75
REMARK   34  A    between atoms: _79  and  _81
REMARK   35  A    between atoms: _81  and  _82
REMARK   36  A    between atoms: _81  and  _84
REMARK   37  A    between atoms: _84  and  _85
REMARK   38  A    between atoms: _90  and  _91
REMARK   39  A    between atoms: _93  and  _95
REMARK   40  A    between atoms: _95  and  _96
REMARK   41  A    between atoms: _98  and  _100
REMARK   42  A    between atoms: _100  and  _101
REMARK   43  A    between atoms: _104  and  _106
REMARK   44  A    between atoms: _106  and  _107
REMARK   45  A    between atoms: _106  and  _109
REMARK   46  A    between atoms: _109  and  _110
REMARK   47  A    between atoms: _110  and  _111
REMARK   48  A    between atoms: _113  and  _115
REMARK   49  A    between atoms: _115  and  _116
REMARK   50  A    between atoms: _115  and  _118
REMARK   51  A    between atoms: _121  and  _123
REMARK   52  A    between atoms: _123  and  _124
REMARK   53  A    between atoms: _128  and  _129
REMARK   54  A    between atoms: _134  and  _136
REMARK   55  A    between atoms: _136  and  _137
REMARK   56  A    between atoms: _136  and  _139
REMARK   57  A    between atoms: _139  and  _140
REMARK   58  A    between atoms: _143  and  _145
REMARK   59  A    between atoms: _145  and  _146
REMARK   60  A    between atoms: _145  and  _148
REMARK   61  A    between atoms: _148  and  _149
REMARK   62  A    between atoms: _152  and  _154
REMARK   63  A    between atoms: _154  and  _155
REMARK   64  A    between atoms: _154  and  _157
REMARK   65  A    between atoms: _157  and  _158
REMARK   66  A    between atoms: _161  and  _163
REMARK   67  A    between atoms: _163  and  _164
REMARK   68  A    between atoms: _163  and  _166
REMARK   69  A    between atoms: _166  and  _167
REMARK   70  A    between atoms: _170  and  _172
REMARK   71  A    between atoms: _172  and  _173
REMARK   72  A    between atoms: _172  and  _175
REMARK   73  A    between atoms: _175  and  _176
REMARK   74  A    between atoms: _176  and  _177
REMARK   75  A    between atoms: _177  and  _178
REMARK   76  A    between atoms: _187  and  _189
REMARK   77  A    between atoms: _189  and  _190
REMARK   78  A    between atoms: _189  and  _192
REMARK   79  A    between atoms: _192  and  _193
REMARK   80  A    between atoms: _199  and  _201
REMARK   81  A    between atoms: _201  and  _202
REMARK   82  A    between atoms: _201  and  _204
REMARK   83  A    between atoms: _204  and  _205
REMARK   84  A    between atoms: _205  and  _206
REMARK   85  A    between atoms: _208  and  _210
REMARK   86  A    between atoms: _210  and  _211
REMARK   87  A    between atoms: _210  and  _213
REMARK   88  A    between atoms: _213  and  _214
REMARK   89  A    between atoms: _217  and  _219
REMARK   90  A    between atoms: _219  and  _220
REMARK   91  A    between atoms: _222  and  _224
REMARK   92  A    between atoms: _224  and  _225
REMARK   93  A    between atoms: _224  and  _227
REMARK   94  A    between atoms: _227  and  _228
REMARK   95  A    between atoms: _231  and  _233
REMARK   96  A    between atoms: _233  and  _234
REMARK   97  A    between atoms: _233  and  _236
REMARK   98  A    between atoms: _236  and  _237
REMARK   99  A    between atoms: _239  and  _241
REMARK  100  A    between atoms: _241  and  _242
REMARK  101  A    between atoms: _244  and  _246
REMARK  102  A    between atoms: _246  and  _247
REMARK  103  A    between atoms: _246  and  _249
REMARK  104  A    between atoms: _249  and  _250
REMARK  105  A    between atoms: _253  and  _255
REMARK  106  A    between atoms: _255  and  _256
REMARK  107  A    between atoms: _255  and  _258
REMARK  108  A    between atoms: _258  and  _259
REMARK  109  A    between atoms: _262  and  _264
REMARK  110  A    between atoms: _264  and  _265
REMARK  111  A    between atoms: _264  and  _267
REMARK  112  A    between atoms: _267  and  _268
REMARK  113  A    between atoms: _271  and  _273
REMARK  114  A    between atoms: _273  and  _274
REMARK  115  A    between atoms: _273  and  _276
REMARK  116  A    between atoms: _276  and  _277
REMARK  117  A    between atoms: _279  and  _281
REMARK  118  A    between atoms: _281  and  _282
REMARK  119  A    between atoms: _284  and  _286
REMARK  120  A    between atoms: _286  and  _287
REMARK  121  A    between atoms: _286  and  _289
REMARK  122  A    between atoms: _289  and  _290
REMARK  123  A    between atoms: _292  and  _294
REMARK  124  A    between atoms: _294  and  _295
REMARK  125  A    between atoms: _294  and  _297
REMARK  126  A    between atoms: _297  and  _298
REMARK  127  A    between atoms: _301  and  _303
REMARK  128  A    between atoms: _303  and  _304
REMARK  129  A    between atoms: _303  and  _306
REMARK  130  A    between atoms: _306  and  _307
REMARK  131  A    between atoms: _307  and  _308
REMARK  132  A    between atoms: _308  and  _309
REMARK  133  A    between atoms: _309  and  _310
REMARK  134  A    between atoms: _314  and  _316
REMARK  135  A    between atoms: _316  and  _317
REMARK  136  A    between atoms: _316  and  _319
REMARK  137  A    between atoms: _319  and  _320
REMARK  138  A    between atoms: _320  and  _321
REMARK  139  A    between atoms: _324  and  _326
REMARK  140  A    between atoms: _326  and  _327
REMARK  141  A    between atoms: _326  and  _329
REMARK  142  A    between atoms: _329  and  _330
REMARK  143  A    between atoms: _336  and  _338
REMARK  144  A    between atoms: _338  and  _339
REMARK  145  A    between atoms: _338  and  _341
REMARK  146  A    between atoms: _341  and  _342
REMARK  147  A    between atoms: _348  and  _350
REMARK  148  A    between atoms: _350  and  _351
REMARK  149  A    between atoms: _350  and  _353
REMARK  150  A    between atoms: _356  and  _358
REMARK  151  A    between atoms: _358  and  _359
REMARK  152  A    between atoms: _358  and  _361
REMARK  153  A    between atoms: _361  and  _362
REMARK  154  A    between atoms: _365  and  _367
REMARK  155  A    between atoms: _367  and  _368
REMARK  156  A    between atoms: _371  and  _373
REMARK  157  A    between atoms: _373  and  _374
REMARK  158  A    between atoms: _373  and  _376
REMARK  159  A    between atoms: _379  and  _381
REMARK  160  A    between atoms: _381  and  _382
REMARK  161  A    between atoms: _381  and  _384
REMARK  162  A    between atoms: _384  and  _385
REMARK  163  A    between atoms: _390  and  _391
REMARK  164  A    between atoms: _393  and  _395
REMARK  165  A    between atoms: _395  and  _396
REMARK  166  A    between atoms: _395  and  _398
REMARK  167  A    between atoms: _398  and  _399
REMARK  168  A    between atoms: _402  and  _404
REMARK  169  A    between atoms: _404  and  _405
REMARK  170  A    between atoms: _404  and  _407
REMARK  171  A    between atoms: _407  and  _408
REMARK  172  A    between atoms: _411  and  _413
REMARK  173  A    between atoms: _413  and  _414
REMARK  174  A    between atoms: _413  and  _416
REMARK  175  A    between atoms: _416  and  _417
REMARK  176  A    between atoms: _417  and  _418
REMARK  177  A    between atoms: _421  and  _423
REMARK  178  A    between atoms: _423  and  _424
REMARK  179  A    between atoms: _423  and  _426
REMARK  180  A    between atoms: _426  and  _427
REMARK  181  A    between atoms: _429  and  _431
REMARK  182  A    between atoms: _431  and  _432
REMARK  183  A    between atoms: _431  and  _434
REMARK  184  A    between atoms: _434  and  _435
REMARK  185  A    between atoms: _438  and  _440
REMARK  186  A    between atoms: _440  and  _441
REMARK  187  A    between atoms: _440  and  _443
REMARK  188  A    between atoms: _443  and  _444
REMARK  189  A    between atoms: _444  and  _445
REMARK  190  A    between atoms: _447  and  _449
REMARK  191  A    between atoms: _449  and  _450
REMARK  192  A    between atoms: _449  and  _452
REMARK  193  A    between atoms: _452  and  _453
REMARK  194  A    between atoms: _458  and  _460
REMARK  195  A    between atoms: _460  and  _461
REMARK  196  A    between atoms: _460  and  _463
REMARK  197  A    between atoms: _463  and  _464
REMARK  198  A    between atoms: _464  and  _465
REMARK  199  A    between atoms: _468  and  _470
REMARK  200  A    between atoms: _470  and  _471
REMARK  201  A    between atoms: _470  and  _473
REMARK  202  A    between atoms: _473  and  _474
REMARK  203  A    between atoms: _479  and  _480
REMARK  204  A    between atoms: _482  and  _484
REMARK  205  A    between atoms: _484  and  _485
REMARK  206  A    between atoms: _484  and  _487
REMARK  207  A    between atoms: _487  and  _488
REMARK  208  A    between atoms: _491  and  _493
REMARK  209  A    between atoms: _493  and  _494
REMARK  210  A    between atoms: _493  and  _496
REMARK  211  A    between atoms: _496  and  _497
REMARK  212  A    between atoms: _497  and  _498
REMARK  213  A    between atoms: _498  and  _499
REMARK  214  A    between atoms: _499  and  _500
REMARK  215  A    between atoms: _504  and  _506
REMARK  216  A    between atoms: _506  and  _507
REMARK  217  A    between atoms: _509  and  _511
REMARK  218  A    between atoms: _511  and  _512
REMARK  219  A    between atoms: _511  and  _514
REMARK  220  A    between atoms: _514  and  _515
REMARK  221  A    between atoms: _520  and  _521
REMARK  222  A    between atoms: _523  and  _525
REMARK  223  A    between atoms: _525  and  _526
REMARK  224  A    between atoms: _528  and  _530
REMARK  225  A    between atoms: _530  and  _531
REMARK  226  A    between atoms: _530  and  _533
REMARK  227  A    between atoms: _533  and  _534
REMARK  228  A    between atoms: _534  and  _535
REMARK  229  A    between atoms: _535  and  _536
REMARK  230  A    between atoms: _536  and  _537
REMARK  231  A    between atoms: _541  and  _543
REMARK  232  A    between atoms: _543  and  _544
REMARK  233  A    between atoms: _543  and  _546
REMARK  234  A    between atoms: _546  and  _547
REMARK                            x       y       z     vdW  Elec       q    Type
REMARK                         _______ _______ _______ _____ _____    ______ ____
ROOT
ATOM      1  O   HOH     1       3.373  24.242  24.790  0.00  0.00    +0.000 OA
ENDROOT
TORSDOF 0
REMARK  Name = ../refined-set-2016/2p2a/2p2a_pocket.pdb
REMARK  234 active torsions:
REMARK  status: ('A' for Active; 'I' for Inactive)
REMARK    1  A    between atoms: _1  and  _3
REMARK    2  A    between atoms: _3  and  _4
REMARK    3  A    between atoms: _3  and  _6
REMARK    4  A    between atoms: _6  and  _7
REMARK    5  A    between atoms: _10  and  _12
REMARK    6  A    between atoms: _12  and  _13
REMARK    7  A    between atoms: _12  and  _15
REMARK    8  A    between atoms: _15  and  _16
REMARK    9  A    between atoms: _19  and  _21
REMARK   10  A    between atoms: _21  and  _22
REMARK   11  A    between atoms: _21  and  _24
REMARK   12  A    between atoms: _24  and  _25
REMARK   13  A    between atoms: _25  and  _26
REMARK   14  A    between atoms: _29  and  _31
REMARK   15  A    between atoms: _31  and  _32
REMARK   16  A    between atoms: _31  and  _34
REMARK   17  A    between atoms: _34  and  _35
REMARK   18  A    between atoms: _38  and  _39
REMARK   19  A    between atoms: _44  and  _46
REMARK   20  A    between atoms: _46  and  _47
REMARK   21  A    between atoms: _46  and  _49
REMARK   22  A    between atoms: _49  and  _50
REMARK   23  A    between atoms: _55  and  _56
REMARK   24  A    between atoms: _58  and  _60
REMARK   25  A    between atoms: _60  and  _61
REMARK   26  A    between atoms: _60  and  _63
REMARK   27  A    between atoms: _66  and  _68
REMARK   28  A    between atoms: _68  and  _69
REMARK   29  A    between atoms: _68  and  _71
REMARK   30  A    between atoms: _71  and  _72
REMARK   31  A    between atoms: _72  and  _73
REMARK   32  A    between atoms: _73  and  _74
REMARK   33  A    between atoms: _74  and  _75
REMARK   34  A    between atoms: _79  and  _81
REMARK   35  A    between atoms: _81  and  _82
REMARK   36  A    between atoms: _81  and  _84
REMARK   37  A    between atoms: _84  and  _85
REMARK   38  A    between atoms: _90  and  _91
REMARK   39  A    between atoms: _93  and  _95
REMARK   40  A    between atoms: _95  and  _96
REMARK   41  A    between atoms: _98  and  _100
REMARK   42  A    between atoms: _100  and  _101
REMARK   43  A    between atoms: _104  and  _106
REMARK   44  A    between atoms: _106  and  _107
REMARK   45  A    between atoms: _106  and  _109
REMARK   46  A    between atoms: _109  and  _110
REMARK   47  A    between atoms: _110  and  _111
REMARK   48  A    between atoms: _113  and  _115
REMARK   49  A    between atoms: _115  and  _116
REMARK   50  A    between atoms: _115  and  _118
REMARK   51  A    between atoms: _121  and  _123
REMARK   52  A    between atoms: _123  and  _124
REMARK   53  A    between atoms: _128  and  _129
REMARK   54  A    between atoms: _134  and  _136
REMARK   55  A    between atoms: _136  and  _137
REMARK   56  A    between atoms: _136  and  _139
REMARK   57  A    between atoms: _139  and  _140
REMARK   58  A    between atoms: _143  and  _145
REMARK   59  A    between atoms: _145  and  _146
REMARK   60  A    between atoms: _145  and  _148
REMARK   61  A    between atoms: _148  and  _149
REMARK   62  A    between atoms: _152  and  _154
REMARK   63  A    between atoms: _154  and  _155
REMARK   64  A    between atoms: _154  and  _157
REMARK   65  A    between atoms: _157  and  _158
REMARK   66  A    between atoms: _161  and  _163
REMARK   67  A    between atoms: _163  and  _164
REMARK   68  A    between atoms: _163  and  _166
REMARK   69  A    between atoms: _166  and  _167
REMARK   70  A    between atoms: _170  and  _172
REMARK   71  A    between atoms: _172  and  _173
REMARK   72  A    between atoms: _172  and  _175
REMARK   73  A    between atoms: _175  and  _176
REMARK   74  A    between atoms: _176  and  _177
REMARK   75  A    between atoms: _177  and  _178
REMARK   76  A    between atoms: _187  and  _189
REMARK   77  A    between atoms: _189  and  _190
REMARK   78  A    between atoms: _189  and  _192
REMARK   79  A    between atoms: _192  and  _193
REMARK   80  A    between atoms: _199  and  _201
REMARK   81  A    between atoms: _201  and  _202
REMARK   82  A    between atoms: _201  and  _204
REMARK   83  A    between atoms: _204  and  _205
REMARK   84  A    between atoms: _205  and  _206
REMARK   85  A    between atoms: _208  and  _210
REMARK   86  A    between atoms: _210  and  _211
REMARK   87  A    between atoms: _210  and  _213
REMARK   88  A    between atoms: _213  and  _214
REMARK   89  A    between atoms: _217  and  _219
REMARK   90  A    between atoms: _219  and  _220
REMARK   91  A    between atoms: _222  and  _224
REMARK   92  A    between atoms: _224  and  _225
REMARK   93  A    between atoms: _224  and  _227
REMARK   94  A    between atoms: _227  and  _228
REMARK   95  A    between atoms: _231  and  _233
REMARK   96  A    between atoms: _233  and  _234
REMARK   97  A    between atoms: _233  and  _236
REMARK   98  A    between atoms: _236  and  _237
REMARK   99  A    between atoms: _239  and  _241
REMARK  100  A    between atoms: _241  and  _242
REMARK  101  A    between atoms: _244  and  _246
REMARK  102  A    between atoms: _246  and  _247
REMARK  103  A    between atoms: _246  and  _249
REMARK  104  A    between atoms: _249  and  _250
REMARK  105  A    between atoms: _253  and  _255
REMARK  106  A    between atoms: _255  and  _256
REMARK  107  A    between atoms: _255  and  _258
REMARK  108  A    between atoms: _258  and  _259
REMARK  109  A    between atoms: _262  and  _264
REMARK  110  A    between atoms: _264  and  _265
REMARK  111  A    between atoms: _264  and  _267
REMARK  112  A    between atoms: _267  and  _268
REMARK  113  A    between atoms: _271  and  _273
REMARK  114  A    between atoms: _273  and  _274
REMARK  115  A    between atoms: _273  and  _276
REMARK  116  A    between atoms: _276  and  _277
REMARK  117  A    between atoms: _279  and  _281
REMARK  118  A    between atoms: _281  and  _282
REMARK  119  A    between atoms: _284  and  _286
REMARK  120  A    between atoms: _286  and  _287
REMARK  121  A    between atoms: _286  and  _289
REMARK  122  A    between atoms: _289  and  _290
REMARK  123  A    between atoms: _292  and  _294
REMARK  124  A    between atoms: _294  and  _295
REMARK  125  A    between atoms: _294  and  _297
REMARK  126  A    between atoms: _297  and  _298
REMARK  127  A    between atoms: _301  and  _303
REMARK  128  A    between atoms: _303  and  _304
REMARK  129  A    between atoms: _303  and  _306
REMARK  130  A    between atoms: _306  and  _307
REMARK  131  A    between atoms: _307  and  _308
REMARK  132  A    between atoms: _308  and  _309
REMARK  133  A    between atoms: _309  and  _310
REMARK  134  A    between atoms: _314  and  _316
REMARK  135  A    between atoms: _316  and  _317
REMARK  136  A    between atoms: _316  and  _319
REMARK  137  A    between atoms: _319  and  _320
REMARK  138  A    between atoms: _320  and  _321
REMARK  139  A    between atoms: _324  and  _326
REMARK  140  A    between atoms: _326  and  _327
REMARK  141  A    between atoms: _326  and  _329
REMARK  142  A    between atoms: _329  and  _330
REMARK  143  A    between atoms: _336  and  _338
REMARK  144  A    between atoms: _338  and  _339
REMARK  145  A    between atoms: _338  and  _341
REMARK  146  A    between atoms: _341  and  _342
REMARK  147  A    between atoms: _348  and  _350
REMARK  148  A    between atoms: _350  and  _351
REMARK  149  A    between atoms: _350  and  _353
REMARK  150  A    between atoms: _356  and  _358
REMARK  151  A    between atoms: _358  and  _359
REMARK  152  A    between atoms: _358  and  _361
REMARK  153  A    between atoms: _361  and  _362
REMARK  154  A    between atoms: _365  and  _367
REMARK  155  A    between atoms: _367  and  _368
REMARK  156  A    between atoms: _371  and  _373
REMARK  157  A    between atoms: _373  and  _374
REMARK  158  A    between atoms: _373  and  _376
REMARK  159  A    between atoms: _379  and  _381
REMARK  160  A    between atoms: _381  and  _382
REMARK  161  A    between atoms: _381  and  _384
REMARK  162  A    between atoms: _384  and  _385
REMARK  163  A    between atoms: _390  and  _391
REMARK  164  A    between atoms: _393  and  _395
REMARK  165  A    between atoms: _395  and  _396
REMARK  166  A    between atoms: _395  and  _398
REMARK  167  A    between atoms: _398  and  _399
REMARK  168  A    between atoms: _402  and  _404
REMARK  169  A    between atoms: _404  and  _405
REMARK  170  A    between atoms: _404  and  _407
REMARK  171  A    between atoms: _407  and  _408
REMARK  172  A    between atoms: _411  and  _413
REMARK  173  A    between atoms: _413  and  _414
REMARK  174  A    between atoms: _413  and  _416
REMARK  175  A    between atoms: _416  and  _417
REMARK  176  A    between atoms: _417  and  _418
REMARK  177  A    between atoms: _421  and  _423
REMARK  178  A    between atoms: _423  and  _424
REMARK  179  A    between atoms: _423  and  _426
REMARK  180  A    between atoms: _426  and  _427
REMARK  181  A    between atoms: _429  and  _431
REMARK  182  A    between atoms: _431  and  _432
REMARK  183  A    between atoms: _431  and  _434
REMARK  184  A    between atoms: _434  and  _435
REMARK  185  A    between atoms: _438  and  _440
REMARK  186  A    between atoms: _440  and  _441
REMARK  187  A    between atoms: _440  and  _443
REMARK  188  A    between atoms: _443  and  _444
REMARK  189  A    between atoms: _444  and  _445
REMARK  190  A    between atoms: _447  and  _449
REMARK  191  A    between atoms: _449  and  _450
REMARK  192  A    between atoms: _449  and  _452
REMARK  193  A    between atoms: _452  and  _453
REMARK  194  A    between atoms: _458  and  _460
REMARK  195  A    between atoms: _460  and  _461
REMARK  196  A    between atoms: _460  and  _463
REMARK  197  A    between atoms: _463  and  _464
REMARK  198  A    between atoms: _464  and  _465
REMARK  199  A    between atoms: _468  and  _470
REMARK  200  A    between atoms: _470  and  _471
REMARK  201  A    between atoms: _470  and  _473
REMARK  202  A    between atoms: _473  and  _474
REMARK  203  A    between atoms: _479  and  _480
REMARK  204  A    between atoms: _482  and  _484
REMARK  205  A    between atoms: _484  and  _485
REMARK  206  A    between atoms: _484  and  _487
REMARK  207  A    between atoms: _487  and  _488
REMARK  208  A    between atoms: _491  and  _493
REMARK  209  A    between atoms: _493  and  _494
REMARK  210  A    between atoms: _493  and  _496
REMARK  211  A    between atoms: _496  and  _497
REMARK  212  A    between atoms: _497  and  _498
REMARK  213  A    between atoms: _498  and  _499
REMARK  214  A    between atoms: _499  and  _500
REMARK  215  A    between atoms: _504  and  _506
REMARK  216  A    between atoms: _506  and  _507
REMARK  217  A    between atoms: _509  and  _511
REMARK  218  A    between atoms: _511  and  _512
REMARK  219  A    between atoms: _511  and  _514
REMARK  220  A    between atoms: _514  and  _515
REMARK  221  A    between atoms: _520  and  _521
REMARK  222  A    between atoms: _523  and  _525
REMARK  223  A    between atoms: _525  and  _526
REMARK  224  A    between atoms: _528  and  _530
REMARK  225  A    between atoms: _530  and  _531
REMARK  226  A    between atoms: _530  and  _533
REMARK  227  A    between atoms: _533  and  _534
REMARK  228  A    between atoms: _534  and  _535
REMARK  229  A    between atoms: _535  and  _536
REMARK  230  A    between atoms: _536  and  _537
REMARK  231  A    between atoms: _541  and  _543
REMARK  232  A    between atoms: _543  and  _544
REMARK  233  A    between atoms: _543  and  _546
REMARK  234  A    between atoms: _546  and  _547
REMARK                            x       y       z     vdW  Elec       q    Type
REMARK                         _______ _______ _______ _____ _____    ______ ____
ROOT
ATOM      1  O   HOH     1       4.413  16.860  14.808  0.00  0.00    +0.000 OA
ENDROOT
TORSDOF 0
REMARK  Name = ../refined-set-2016/2p2a/2p2a_pocket.pdb
REMARK  234 active torsions:
REMARK  status: ('A' for Active; 'I' for Inactive)
REMARK    1  A    between atoms: _1  and  _3
REMARK    2  A    between atoms: _3  and  _4
REMARK    3  A    between atoms: _3  and  _6
REMARK    4  A    between atoms: _6  and  _7
REMARK    5  A    between atoms: _10  and  _12
REMARK    6  A    between atoms: _12  and  _13
REMARK    7  A    between atoms: _12  and  _15
REMARK    8  A    between atoms: _15  and  _16
REMARK    9  A    between atoms: _19  and  _21
REMARK   10  A    between atoms: _21  and  _22
REMARK   11  A    between atoms: _21  and  _24
REMARK   12  A    between atoms: _24  and  _25
REMARK   13  A    between atoms: _25  and  _26
REMARK   14  A    between atoms: _29  and  _31
REMARK   15  A    between atoms: _31  and  _32
REMARK   16  A    between atoms: _31  and  _34
REMARK   17  A    between atoms: _34  and  _35
REMARK   18  A    between atoms: _38  and  _39
REMARK   19  A    between atoms: _44  and  _46
REMARK   20  A    between atoms: _46  and  _47
REMARK   21  A    between atoms: _46  and  _49
REMARK   22  A    between atoms: _49  and  _50
REMARK   23  A    between atoms: _55  and  _56
REMARK   24  A    between atoms: _58  and  _60
REMARK   25  A    between atoms: _60  and  _61
REMARK   26  A    between atoms: _60  and  _63
REMARK   27  A    between atoms: _66  and  _68
REMARK   28  A    between atoms: _68  and  _69
REMARK   29  A    between atoms: _68  and  _71
REMARK   30  A    between atoms: _71  and  _72
REMARK   31  A    between atoms: _72  and  _73
REMARK   32  A    between atoms: _73  and  _74
REMARK   33  A    between atoms: _74  and  _75
REMARK   34  A    between atoms: _79  and  _81
REMARK   35  A    between atoms: _81  and  _82
REMARK   36  A    between atoms: _81  and  _84
REMARK   37  A    between atoms: _84  and  _85
REMARK   38  A    between atoms: _90  and  _91
REMARK   39  A    between atoms: _93  and  _95
REMARK   40  A    between atoms: _95  and  _96
REMARK   41  A    between atoms: _98  and  _100
REMARK   42  A    between atoms: _100  and  _101
REMARK   43  A    between atoms: _104  and  _106
REMARK   44  A    between atoms: _106  and  _107
REMARK   45  A    between atoms: _106  and  _109
REMARK   46  A    between atoms: _109  and  _110
REMARK   47  A    between atoms: _110  and  _111
REMARK   48  A    between atoms: _113  and  _115
REMARK   49  A    between atoms: _115  and  _116
REMARK   50  A    between atoms: _115  and  _118
REMARK   51  A    between atoms: _121  and  _123
REMARK   52  A    between atoms: _123  and  _124
REMARK   53  A    between atoms: _128  and  _129
REMARK   54  A    between atoms: _134  and  _136
REMARK   55  A    between atoms: _136  and  _137
REMARK   56  A    between atoms: _136  and  _139
REMARK   57  A    between atoms: _139  and  _140
REMARK   58  A    between atoms: _143  and  _145
REMARK   59  A    between atoms: _145  and  _146
REMARK   60  A    between atoms: _145  and  _148
REMARK   61  A    between atoms: _148  and  _149
REMARK   62  A    between atoms: _152  and  _154
REMARK   63  A    between atoms: _154  and  _155
REMARK   64  A    between atoms: _154  and  _157
REMARK   65  A    between atoms: _157  and  _158
REMARK   66  A    between atoms: _161  and  _163
REMARK   67  A    between atoms: _163  and  _164
REMARK   68  A    between atoms: _163  and  _166
REMARK   69  A    between atoms: _166  and  _167
REMARK   70  A    between atoms: _170  and  _172
REMARK   71  A    between atoms: _172  and  _173
REMARK   72  A    between atoms: _172  and  _175
REMARK   73  A    between atoms: _175  and  _176
REMARK   74  A    between atoms: _176  and  _177
REMARK   75  A    between atoms: _177  and  _178
REMARK   76  A    between atoms: _187  and  _189
REMARK   77  A    between atoms: _189  and  _190
REMARK   78  A    between atoms: _189  and  _192
REMARK   79  A    between atoms: _192  and  _193
REMARK   80  A    between atoms: _199  and  _201
REMARK   81  A    between atoms: _201  and  _202
REMARK   82  A    between atoms: _201  and  _204
REMARK   83  A    between atoms: _204  and  _205
REMARK   84  A    between atoms: _205  and  _206
REMARK   85  A    between atoms: _208  and  _210
REMARK   86  A    between atoms: _210  and  _211
REMARK   87  A    between atoms: _210  and  _213
REMARK   88  A    between atoms: _213  and  _214
REMARK   89  A    between atoms: _217  and  _219
REMARK   90  A    between atoms: _219  and  _220
REMARK   91  A    between atoms: _222  and  _224
REMARK   92  A    between atoms: _224  and  _225
REMARK   93  A    between atoms: _224  and  _227
REMARK   94  A    between atoms: _227  and  _228
REMARK   95  A    between atoms: _231  and  _233
REMARK   96  A    between atoms: _233  and  _234
REMARK   97  A    between atoms: _233  and  _236
REMARK   98  A    between atoms: _236  and  _237
REMARK   99  A    between atoms: _239  and  _241
REMARK  100  A    between atoms: _241  and  _242
REMARK  101  A    between atoms: _244  and  _246
REMARK  102  A    between atoms: _246  and  _247
REMARK  103  A    between atoms: _246  and  _249
REMARK  104  A    between atoms: _249  and  _250
REMARK  105  A    between atoms: _253  and  _255
REMARK  106  A    between atoms: _255  and  _256
REMARK  107  A    between atoms: _255  and  _258
REMARK  108  A    between atoms: _258  and  _259
REMARK  109  A    between atoms: _262  and  _264
REMARK  110  A    between atoms: _264  and  _265
REMARK  111  A    between atoms: _264  and  _267
REMARK  112  A    between atoms: _267  and  _268
REMARK  113  A    between atoms: _271  and  _273
REMARK  114  A    between atoms: _273  and  _274
REMARK  115  A    between atoms: _273  and  _276
REMARK  116  A    between atoms: _276  and  _277
REMARK  117  A    between atoms: _279  and  _281
REMARK  118  A    between atoms: _281  and  _282
REMARK  119  A    between atoms: _284  and  _286
REMARK  120  A    between atoms: _286  and  _287
REMARK  121  A    between atoms: _286  and  _289
REMARK  122  A    between atoms: _289  and  _290
REMARK  123  A    between atoms: _292  and  _294
REMARK  124  A    between atoms: _294  and  _295
REMARK  125  A    between atoms: _294  and  _297
REMARK  126  A    between atoms: _297  and  _298
REMARK  127  A    between atoms: _301  and  _303
REMARK  128  A    between atoms: _303  and  _304
REMARK  129  A    between atoms: _303  and  _306
REMARK  130  A    between atoms: _306  and  _307
REMARK  131  A    between atoms: _307  and  _308
REMARK  132  A    between atoms: _308  and  _309
REMARK  133  A    between atoms: _309  and  _310
REMARK  134  A    between atoms: _314  and  _316
REMARK  135  A    between atoms: _316  and  _317
REMARK  136  A    between atoms: _316  and  _319
REMARK  137  A    between atoms: _319  and  _320
REMARK  138  A    between atoms: _320  and  _321
REMARK  139  A    between atoms: _324  and  _326
REMARK  140  A    between atoms: _326  and  _327
REMARK  141  A    between atoms: _326  and  _329
REMARK  142  A    between atoms: _329  and  _330
REMARK  143  A    between atoms: _336  and  _338
REMARK  144  A    between atoms: _338  and  _339
REMARK  145  A    between atoms: _338  and  _341
REMARK  146  A    between atoms: _341  and  _342
REMARK  147  A    between atoms: _348  and  _350
REMARK  148  A    between atoms: _350  and  _351
REMARK  149  A    between atoms: _350  and  _353
REMARK  150  A    between atoms: _356  and  _358
REMARK  151  A    between atoms: _358  and  _359
REMARK  152  A    between atoms: _358  and  _361
REMARK  153  A    between atoms: _361  and  _362
REMARK  154  A    between atoms: _365  and  _367
REMARK  155  A    between atoms: _367  and  _368
REMARK  156  A    between atoms: _371  and  _373
REMARK  157  A    between atoms: _373  and  _374
REMARK  158  A    between atoms: _373  and  _376
REMARK  159  A    between atoms: _379  and  _381
REMARK  160  A    between atoms: _381  and  _382
REMARK  161  A    between atoms: _381  and  _384
REMARK  162  A    between atoms: _384  and  _385
REMARK  163  A    between atoms: _390  and  _391
REMARK  164  A    between atoms: _393  and  _395
REMARK  165  A    between atoms: _395  and  _396
REMARK  166  A    between atoms: _395  and  _398
REMARK  167  A    between atoms: _398  and  _399
REMARK  168  A    between atoms: _402  and  _404
REMARK  169  A    between atoms: _404  and  _405
REMARK  170  A    between atoms: _404  and  _407
REMARK  171  A    between atoms: _407  and  _408
REMARK  172  A    between atoms: _411  and  _413
REMARK  173  A    between atoms: _413  and  _414
REMARK  174  A    between atoms: _413  and  _416
REMARK  175  A    between atoms: _416  and  _417
REMARK  176  A    between atoms: _417  and  _418
REMARK  177  A    between atoms: _421  and  _423
REMARK  178  A    between atoms: _423  and  _424
REMARK  179  A    between atoms: _423  and  _426
REMARK  180  A    between atoms: _426  and  _427
REMARK  181  A    between atoms: _429  and  _431
REMARK  182  A    between atoms: _431  and  _432
REMARK  183  A    between atoms: _431  and  _434
REMARK  184  A    between atoms: _434  and  _435
REMARK  185  A    between atoms: _438  and  _440
REMARK  186  A    between atoms: _440  and  _441
REMARK  187  A    between atoms: _440  and  _443
REMARK  188  A    between atoms: _443  and  _444
REMARK  189  A    between atoms: _444  and  _445
REMARK  190  A    between atoms: _447  and  _449
REMARK  191  A    between atoms: _449  and  _450
REMARK  192  A    between atoms: _449  and  _452
REMARK  193  A    between atoms: _452  and  _453
REMARK  194  A    between atoms: _458  and  _460
REMARK  195  A    between atoms: _460  and  _461
REMARK  196  A    between atoms: _460  and  _463
REMARK  197  A    between atoms: _463  and  _464
REMARK  198  A    between atoms: _464  and  _465
REMARK  199  A    between atoms: _468  and  _470
REMARK  200  A    between atoms: _470  and  _471
REMARK  201  A    between atoms: _470  and  _473
REMARK  202  A    between atoms: _473  and  _474
REMARK  203  A    between atoms: _479  and  _480
REMARK  204  A    between atoms: _482  and  _484
REMARK  205  A    between atoms: _484  and  _485
REMARK  206  A    between atoms: _484  and  _487
REMARK  207  A    between atoms: _487  and  _488
REMARK  208  A    between atoms: _491  and  _493
REMARK  209  A    between atoms: _493  and  _494
REMARK  210  A    between atoms: _493  and  _496
REMARK  211  A    between atoms: _496  and  _497
REMARK  212  A    between atoms: _497  and  _498
REMARK  213  A    between atoms: _498  and  _499
REMARK  214  A    between atoms: _499  and  _500
REMARK  215  A    between atoms: _504  and  _506
REMARK  216  A    between atoms: _506  and  _507
REMARK  217  A    between atoms: _509  and  _511
REMARK  218  A    between atoms: _511  and  _512
REMARK  219  A    between atoms: _511  and  _514
REMARK  220  A    between atoms: _514  and  _515
REMARK  221  A    between atoms: _520  and  _521
REMARK  222  A    between atoms: _523  and  _525
REMARK  223  A    between atoms: _525  and  _526
REMARK  224  A    between atoms: _528  and  _530
REMARK  225  A    between atoms: _530  and  _531
REMARK  226  A    between atoms: _530  and  _533
REMARK  227  A    between atoms: _533  and  _534
REMARK  228  A    between atoms: _534  and  _535
REMARK  229  A    between atoms: _535  and  _536
REMARK  230  A    between atoms: _536  and  _537
REMARK  231  A    between atoms: _541  and  _543
REMARK  232  A    between atoms: _543  and  _544
REMARK  233  A    between atoms: _543  and  _546
REMARK  234  A    between atoms: _546  and  _547
REMARK                            x       y       z     vdW  Elec       q    Type
REMARK                         _______ _______ _______ _____ _____    ______ ____
ROOT
ATOM      1  O   HOH     1      16.460  21.761  27.596  0.00  0.00    +0.000 OA
ENDROOT
TORSDOF 0
REMARK  Name = ../refined-set-2016/2p2a/2p2a_pocket.pdb
REMARK  234 active torsions:
REMARK  status: ('A' for Active; 'I' for Inactive)
REMARK    1  A    between atoms: _1  and  _3
REMARK    2  A    between atoms: _3  and  _4
REMARK    3  A    between atoms: _3  and  _6
REMARK    4  A    between atoms: _6  and  _7
REMARK    5  A    between atoms: _10  and  _12
REMARK    6  A    between atoms: _12  and  _13
REMARK    7  A    between atoms: _12  and  _15
REMARK    8  A    between atoms: _15  and  _16
REMARK    9  A    between atoms: _19  and  _21
REMARK   10  A    between atoms: _21  and  _22
REMARK   11  A    between atoms: _21  and  _24
REMARK   12  A    between atoms: _24  and  _25
REMARK   13  A    between atoms: _25  and  _26
REMARK   14  A    between atoms: _29  and  _31
REMARK   15  A    between atoms: _31  and  _32
REMARK   16  A    between atoms: _31  and  _34
REMARK   17  A    between atoms: _34  and  _35
REMARK   18  A    between atoms: _38  and  _39
REMARK   19  A    between atoms: _44  and  _46
REMARK   20  A    between atoms: _46  and  _47
REMARK   21  A    between atoms: _46  and  _49
REMARK   22  A    between atoms: _49  and  _50
REMARK   23  A    between atoms: _55  and  _56
REMARK   24  A    between atoms: _58  and  _60
REMARK   25  A    between atoms: _60  and  _61
REMARK   26  A    between atoms: _60  and  _63
REMARK   27  A    between atoms: _66  and  _68
REMARK   28  A    between atoms: _68  and  _69
REMARK   29  A    between atoms: _68  and  _71
REMARK   30  A    between atoms: _71  and  _72
REMARK   31  A    between atoms: _72  and  _73
REMARK   32  A    between atoms: _73  and  _74
REMARK   33  A    between atoms: _74  and  _75
REMARK   34  A    between atoms: _79  and  _81
REMARK   35  A    between atoms: _81  and  _82
REMARK   36  A    between atoms: _81  and  _84
REMARK   37  A    between atoms: _84  and  _85
REMARK   38  A    between atoms: _90  and  _91
REMARK   39  A    between atoms: _93  and  _95
REMARK   40  A    between atoms: _95  and  _96
REMARK   41  A    between atoms: _98  and  _100
REMARK   42  A    between atoms: _100  and  _101
REMARK   43  A    between atoms: _104  and  _106
REMARK   44  A    between atoms: _106  and  _107
REMARK   45  A    between atoms: _106  and  _109
REMARK   46  A    between atoms: _109  and  _110
REMARK   47  A    between atoms: _110  and  _111
REMARK   48  A    between atoms: _113  and  _115
REMARK   49  A    between atoms: _115  and  _116
REMARK   50  A    between atoms: _115  and  _118
REMARK   51  A    between atoms: _121  and  _123
REMARK   52  A    between atoms: _123  and  _124
REMARK   53  A    between atoms: _128  and  _129
REMARK   54  A    between atoms: _134  and  _136
REMARK   55  A    between atoms: _136  and  _137
REMARK   56  A    between atoms: _136  and  _139
REMARK   57  A    between atoms: _139  and  _140
REMARK   58  A    between atoms: _143  and  _145
REMARK   59  A    between atoms: _145  and  _146
REMARK   60  A    between atoms: _145  and  _148
REMARK   61  A    between atoms: _148  and  _149
REMARK   62  A    between atoms: _152  and  _154
REMARK   63  A    between atoms: _154  and  _155
REMARK   64  A    between atoms: _154  and  _157
REMARK   65  A    between atoms: _157  and  _158
REMARK   66  A    between atoms: _161  and  _163
REMARK   67  A    between atoms: _163  and  _164
REMARK   68  A    between atoms: _163  and  _166
REMARK   69  A    between atoms: _166  and  _167
REMARK   70  A    between atoms: _170  and  _172
REMARK   71  A    between atoms: _172  and  _173
REMARK   72  A    between atoms: _172  and  _175
REMARK   73  A    between atoms: _175  and  _176
REMARK   74  A    between atoms: _176  and  _177
REMARK   75  A    between atoms: _177  and  _178
REMARK   76  A    between atoms: _187  and  _189
REMARK   77  A    between atoms: _189  and  _190
REMARK   78  A    between atoms: _189  and  _192
REMARK   79  A    between atoms: _192  and  _193
REMARK   80  A    between atoms: _199  and  _201
REMARK   81  A    between atoms: _201  and  _202
REMARK   82  A    between atoms: _201  and  _204
REMARK   83  A    between atoms: _204  and  _205
REMARK   84  A    between atoms: _205  and  _206
REMARK   85  A    between atoms: _208  and  _210
REMARK   86  A    between atoms: _210  and  _211
REMARK   87  A    between atoms: _210  and  _213
REMARK   88  A    between atoms: _213  and  _214
REMARK   89  A    between atoms: _217  and  _219
REMARK   90  A    between atoms: _219  and  _220
REMARK   91  A    between atoms: _222  and  _224
REMARK   92  A    between atoms: _224  and  _225
REMARK   93  A    between atoms: _224  and  _227
REMARK   94  A    between atoms: _227  and  _228
REMARK   95  A    between atoms: _231  and  _233
REMARK   96  A    between atoms: _233  and  _234
REMARK   97  A    between atoms: _233  and  _236
REMARK   98  A    between atoms: _236  and  _237
REMARK   99  A    between atoms: _239  and  _241
REMARK  100  A    between atoms: _241  and  _242
REMARK  101  A    between atoms: _244  and  _246
REMARK  102  A    between atoms: _246  and  _247
REMARK  103  A    between atoms: _246  and  _249
REMARK  104  A    between atoms: _249  and  _250
REMARK  105  A    between atoms: _253  and  _255
REMARK  106  A    between atoms: _255  and  _256
REMARK  107  A    between atoms: _255  and  _258
REMARK  108  A    between atoms: _258  and  _259
REMARK  109  A    between atoms: _262  and  _264
REMARK  110  A    between atoms: _264  and  _265
REMARK  111  A    between atoms: _264  and  _267
REMARK  112  A    between atoms: _267  and  _268
REMARK  113  A    between atoms: _271  and  _273
REMARK  114  A    between atoms: _273  and  _274
REMARK  115  A    between atoms: _273  and  _276
REMARK  116  A    between atoms: _276  and  _277
REMARK  117  A    between atoms: _279  and  _281
REMARK  118  A    between atoms: _281  and  _282
REMARK  119  A    between atoms: _284  and  _286
REMARK  120  A    between atoms: _286  and  _287
REMARK  121  A    between atoms: _286  and  _289
REMARK  122  A    between atoms: _289  and  _290
REMARK  123  A    between atoms: _292  and  _294
REMARK  124  A    between atoms: _294  and  _295
REMARK  125  A    between atoms: _294  and  _297
REMARK  126  A    between atoms: _297  and  _298
REMARK  127  A    between atoms: _301  and  _303
REMARK  128  A    between atoms: _303  and  _304
REMARK  129  A    between atoms: _303  and  _306
REMARK  130  A    between atoms: _306  and  _307
REMARK  131  A    between atoms: _307  and  _308
REMARK  132  A    between atoms: _308  and  _309
REMARK  133  A    between atoms: _309  and  _310
REMARK  134  A    between atoms: _314  and  _316
REMARK  135  A    between atoms: _316  and  _317
REMARK  136  A    between atoms: _316  and  _319
REMARK  137  A    between atoms: _319  and  _320
REMARK  138  A    between atoms: _320  and  _321
REMARK  139  A    between atoms: _324  and  _326
REMARK  140  A    between atoms: _326  and  _327
REMARK  141  A    between atoms: _326  and  _329
REMARK  142  A    between atoms: _329  and  _330
REMARK  143  A    between atoms: _336  and  _338
REMARK  144  A    between atoms: _338  and  _339
REMARK  145  A    between atoms: _338  and  _341
REMARK  146  A    between atoms: _341  and  _342
REMARK  147  A    between atoms: _348  and  _350
REMARK  148  A    between atoms: _350  and  _351
REMARK  149  A    between atoms: _350  and  _353
REMARK  150  A    between atoms: _356  and  _358
REMARK  151  A    between atoms: _358  and  _359
REMARK  152  A    between atoms: _358  and  _361
REMARK  153  A    between atoms: _361  and  _362
REMARK  154  A    between atoms: _365  and  _367
REMARK  155  A    between atoms: _367  and  _368
REMARK  156  A    between atoms: _371  and  _373
REMARK  157  A    between atoms: _373  and  _374
REMARK  158  A    between atoms: _373  and  _376
REMARK  159  A    between atoms: _379  and  _381
REMARK  160  A    between atoms: _381  and  _382
REMARK  161  A    between atoms: _381  and  _384
REMARK  162  A    between atoms: _384  and  _385
REMARK  163  A    between atoms: _390  and  _391
REMARK  164  A    between atoms: _393  and  _395
REMARK  165  A    between atoms: _395  and  _396
REMARK  166  A    between atoms: _395  and  _398
REMARK  167  A    between atoms: _398  and  _399
REMARK  168  A    between atoms: _402  and  _404
REMARK  169  A    between atoms: _404  and  _405
REMARK  170  A    between atoms: _404  and  _407
REMARK  171  A    between atoms: _407  and  _408
REMARK  172  A    between atoms: _411  and  _413
REMARK  173  A    between atoms: _413  and  _414
REMARK  174  A    between atoms: _413  and  _416
REMARK  175  A    between atoms: _416  and  _417
REMARK  176  A    between atoms: _417  and  _418
REMARK  177  A    between atoms: _421  and  _423
REMARK  178  A    between atoms: _423  and  _424
REMARK  179  A    between atoms: _423  and  _426
REMARK  180  A    between atoms: _426  and  _427
REMARK  181  A    between atoms: _429  and  _431
REMARK  182  A    between atoms: _431  and  _432
REMARK  183  A    between atoms: _431  and  _434
REMARK  184  A    between atoms: _434  and  _435
REMARK  185  A    between atoms: _438  and  _440
REMARK  186  A    between atoms: _440  and  _441
REMARK  187  A    between atoms: _440  and  _443
REMARK  188  A    between atoms: _443  and  _444
REMARK  189  A    between atoms: _444  and  _445
REMARK  190  A    between atoms: _447  and  _449
REMARK  191  A    between atoms: _449  and  _450
REMARK  192  A    between atoms: _449  and  _452
REMARK  193  A    between atoms: _452  and  _453
REMARK  194  A    between atoms: _458  and  _460
REMARK  195  A    between atoms: _460  and  _461
REMARK  196  A    between atoms: _460  and  _463
REMARK  197  A    between atoms: _463  and  _464
REMARK  198  A    between atoms: _464  and  _465
REMARK  199  A    between atoms: _468  and  _470
REMARK  200  A    between atoms: _470  and  _471
REMARK  201  A    between atoms: _470  and  _473
REMARK  202  A    between atoms: _473  and  _474
REMARK  203  A    between atoms: _479  and  _480
REMARK  204  A    between atoms: _482  and  _484
REMARK  205  A    between atoms: _484  and  _485
REMARK  206  A    between atoms: _484  and  _487
REMARK  207  A    between atoms: _487  and  _488
REMARK  208  A    between atoms: _491  and  _493
REMARK  209  A    between atoms: _493  and  _494
REMARK  210  A    between atoms: _493  and  _496
REMARK  211  A    between atoms: _496  and  _497
REMARK  212  A    between atoms: _497  and  _498
REMARK  213  A    between atoms: _498  and  _499
REMARK  214  A    between atoms: _499  and  _500
REMARK  215  A    between atoms: _504  and  _506
REMARK  216  A    between atoms: _506  and  _507
REMARK  217  A    between atoms: _509  and  _511
REMARK  218  A    between atoms: _511  and  _512
REMARK  219  A    between atoms: _511  and  _514
REMARK  220  A    between atoms: _514  and  _515
REMARK  221  A    between atoms: _520  and  _521
REMARK  222  A    between atoms: _523  and  _525
REMARK  223  A    between atoms: _525  and  _526
REMARK  224  A    between atoms: _528  and  _530
REMARK  225  A    between atoms: _530  and  _531
REMARK  226  A    between atoms: _530  and  _533
REMARK  227  A    between atoms: _533  and  _534
REMARK  228  A    between atoms: _534  and  _535
REMARK  229  A    between atoms: _535  and  _536
REMARK  230  A    between atoms: _536  and  _537
REMARK  231  A    between atoms: _541  and  _543
REMARK  232  A    between atoms: _543  and  _544
REMARK  233  A    between atoms: _543  and  _546
REMARK  234  A    between atoms: _546  and  _547
REMARK                            x       y       z     vdW  Elec       q    Type
REMARK                         _______ _______ _______ _____ _____    ______ ____
ROOT
ATOM      1  O   HOH     1       7.160  34.302  24.833  0.00  0.00    +0.000 OA
ENDROOT
TORSDOF 0
