REMARK  Name = ../refined-set-2016/2vo4/2vo4_pocket.pdb
REMARK  106 active torsions:
REMARK  status: ('A' for Active; 'I' for Inactive)
REMARK    1  A    between atoms: _1  and  _3
REMARK    2  A    between atoms: _3  and  _4
REMARK    3  A    between atoms: _3  and  _6
REMARK    4  A    between atoms: _6  and  _7
REMARK    5  A    between atoms: _10  and  _12
REMARK    6  A    between atoms: _12  and  _13
REMARK    7  A    between atoms: _12  and  _15
REMARK    8  A    between atoms: _15  and  _16
REMARK    9  A    between atoms: _19  and  _21
REMARK   10  A    between atoms: _21  and  _22
REMARK   11  A    between atoms: _21  and  _24
REMARK   12  A    between atoms: _24  and  _25
REMARK   13  A    between atoms: _31  and  _33
REMARK   14  A    between atoms: _33  and  _34
REMARK   15  A    between atoms: _33  and  _36
REMARK   16  A    between atoms: _36  and  _37
REMARK   17  A    between atoms: _48  and  _49
REMARK   18  A    between atoms: _54  and  _56
REMARK   19  A    between atoms: _56  and  _57
REMARK   20  A    between atoms: _56  and  _59
REMARK   21  A    between atoms: _59  and  _60
REMARK   22  A    between atoms: _62  and  _64
REMARK   23  A    between atoms: _64  and  _65
REMARK   24  A    between atoms: _64  and  _67
REMARK   25  A    between atoms: _67  and  _68
REMARK   26  A    between atoms: _68  and  _69
REMARK   27  A    between atoms: _71  and  _73
REMARK   28  A    between atoms: _73  and  _74
REMARK   29  A    between atoms: _73  and  _76
REMARK   30  A    between atoms: _76  and  _77
REMARK   31  A    between atoms: _77  and  _78
REMARK   32  A    between atoms: _78  and  _79
REMARK   33  A    between atoms: _88  and  _90
REMARK   34  A    between atoms: _90  and  _91
REMARK   35  A    between atoms: _90  and  _93
REMARK   36  A    between atoms: _93  and  _94
REMARK   37  A    between atoms: _97  and  _99
REMARK   38  A    between atoms: _99  and  _100
REMARK   39  A    between atoms: _99  and  _102
REMARK   40  A    between atoms: _102  and  _103
REMARK   41  A    between atoms: _108  and  _109
REMARK   42  A    between atoms: _111  and  _113
REMARK   43  A    between atoms: _113  and  _114
REMARK   44  A    between atoms: _113  and  _116
REMARK   45  A    between atoms: _116  and  _117
REMARK   46  A    between atoms: _117  and  _118
REMARK   47  A    between atoms: _121  and  _123
REMARK   48  A    between atoms: _123  and  _124
REMARK   49  A    between atoms: _123  and  _126
REMARK   50  A    between atoms: _126  and  _127
REMARK   51  A    between atoms: _132  and  _133
REMARK   52  A    between atoms: _135  and  _137
REMARK   53  A    between atoms: _137  and  _138
REMARK   54  A    between atoms: _137  and  _140
REMARK   55  A    between atoms: _140  and  _141
REMARK   56  A    between atoms: _141  and  _142
REMARK   57  A    between atoms: _142  and  _143
REMARK   58  A    between atoms: _143  and  _144
REMARK   59  A    between atoms: _148  and  _150
REMARK   60  A    between atoms: _150  and  _151
REMARK   61  A    between atoms: _150  and  _153
REMARK   62  A    between atoms: _153  and  _154
REMARK   63  A    between atoms: _154  and  _155
REMARK   64  A    between atoms: _158  and  _160
REMARK   65  A    between atoms: _160  and  _161
REMARK   66  A    between atoms: _160  and  _163
REMARK   67  A    between atoms: _163  and  _164
REMARK   68  A    between atoms: _167  and  _169
REMARK   69  A    between atoms: _169  and  _170
REMARK   70  A    between atoms: _169  and  _172
REMARK   71  A    between atoms: _172  and  _173
REMARK   72  A    between atoms: _175  and  _177
REMARK   73  A    between atoms: _177  and  _178
REMARK   74  A    between atoms: _177  and  _180
REMARK   75  A    between atoms: _183  and  _185
REMARK   76  A    between atoms: _185  and  _186
REMARK   77  A    between atoms: _189  and  _191
REMARK   78  A    between atoms: _191  and  _192
REMARK   79  A    between atoms: _191  and  _194
REMARK   80  A    between atoms: _194  and  _195
REMARK   81  A    between atoms: _195  and  _196
REMARK   82  A    between atoms: _196  and  _197
REMARK   83  A    between atoms: _197  and  _198
REMARK   84  A    between atoms: _202  and  _204
REMARK   85  A    between atoms: _204  and  _205
REMARK   86  A    between atoms: _204  and  _207
REMARK   87  A    between atoms: _207  and  _208
REMARK   88  A    between atoms: _210  and  _212
REMARK   89  A    between atoms: _212  and  _213
REMARK   90  A    between atoms: _212  and  _215
REMARK   91  A    between atoms: _215  and  _216
REMARK   92  A    between atoms: _220  and  _221
REMARK   93  A    between atoms: _226  and  _228
REMARK   94  A    between atoms: _228  and  _229
REMARK   95  A    between atoms: _228  and  _231
REMARK   96  A    between atoms: _231  and  _232
REMARK   97  A    between atoms: _235  and  _237
REMARK   98  A    between atoms: _237  and  _238
REMARK   99  A    between atoms: _237  and  _240
REMARK  100  A    between atoms: _240  and  _241
REMARK  101  A    between atoms: _241  and  _242
REMARK  102  A    between atoms: _242  and  _243
REMARK  103  A    between atoms: _243  and  _244
REMARK  104  A    between atoms: _248  and  _250
REMARK  105  A    between atoms: _250  and  _251
REMARK  106  A    between atoms: _250  and  _253
REMARK                            x       y       z     vdW  Elec       q    Type
REMARK                         _______ _______ _______ _____ _____    ______ ____
ROOT
ATOM      1  CA  LEU A   1      36.947 -37.440 -11.429  0.00  0.00    +0.133 C 
ENDROOT
BRANCH   1   2
ATOM      2  N   LEU A   1      37.940 -37.787 -12.436  0.00  0.00    -0.239 NA
ATOM      3  H   LEU A   1      38.340 -38.747 -12.442  0.00  0.00    +0.142 HD
ENDBRANCH   1   2
BRANCH   1   4
ATOM      4  C   LEU A   1      37.534 -37.712 -10.050  0.00  0.00    +0.224 C 
ATOM      5  O   LEU A   1      37.856 -38.865  -9.742  0.00  0.00    -0.287 OA
ENDBRANCH   1   4
BRANCH   1   6
ATOM      6  CB  LEU A   1      35.630 -38.263 -11.620  0.00  0.00    +0.025 C 
BRANCH   6   7
ATOM      7  CG  LEU A   1      34.531 -37.961 -10.582  0.00  0.00    +0.002 C 
ATOM      8  CD2 LEU A   1      34.064 -36.515 -10.671  0.00  0.00    +0.000 C 
ATOM      9  CD1 LEU A   1      33.322 -38.934 -10.708  0.00  0.00    +0.000 C 
ENDBRANCH   6   7
ENDBRANCH   1   6
TORSDOF 4
REMARK  Name = ../refined-set-2016/2vo4/2vo4_pocket.pdb
REMARK  106 active torsions:
REMARK  status: ('A' for Active; 'I' for Inactive)
REMARK    1  A    between atoms: _1  and  _3
REMARK    2  A    between atoms: _3  and  _4
REMARK    3  A    between atoms: _3  and  _6
REMARK    4  A    between atoms: _6  and  _7
REMARK    5  A    between atoms: _10  and  _12
REMARK    6  A    between atoms: _12  and  _13
REMARK    7  A    between atoms: _12  and  _15
REMARK    8  A    between atoms: _15  and  _16
REMARK    9  A    between atoms: _19  and  _21
REMARK   10  A    between atoms: _21  and  _22
REMARK   11  A    between atoms: _21  and  _24
REMARK   12  A    between atoms: _24  and  _25
REMARK   13  A    between atoms: _31  and  _33
REMARK   14  A    between atoms: _33  and  _34
REMARK   15  A    between atoms: _33  and  _36
REMARK   16  A    between atoms: _36  and  _37
REMARK   17  A    between atoms: _48  and  _49
REMARK   18  A    between atoms: _54  and  _56
REMARK   19  A    between atoms: _56  and  _57
REMARK   20  A    between atoms: _56  and  _59
REMARK   21  A    between atoms: _59  and  _60
REMARK   22  A    between atoms: _62  and  _64
REMARK   23  A    between atoms: _64  and  _65
REMARK   24  A    between atoms: _64  and  _67
REMARK   25  A    between atoms: _67  and  _68
REMARK   26  A    between atoms: _68  and  _69
REMARK   27  A    between atoms: _71  and  _73
REMARK   28  A    between atoms: _73  and  _74
REMARK   29  A    between atoms: _73  and  _76
REMARK   30  A    between atoms: _76  and  _77
REMARK   31  A    between atoms: _77  and  _78
REMARK   32  A    between atoms: _78  and  _79
REMARK   33  A    between atoms: _88  and  _90
REMARK   34  A    between atoms: _90  and  _91
REMARK   35  A    between atoms: _90  and  _93
REMARK   36  A    between atoms: _93  and  _94
REMARK   37  A    between atoms: _97  and  _99
REMARK   38  A    between atoms: _99  and  _100
REMARK   39  A    between atoms: _99  and  _102
REMARK   40  A    between atoms: _102  and  _103
REMARK   41  A    between atoms: _108  and  _109
REMARK   42  A    between atoms: _111  and  _113
REMARK   43  A    between atoms: _113  and  _114
REMARK   44  A    between atoms: _113  and  _116
REMARK   45  A    between atoms: _116  and  _117
REMARK   46  A    between atoms: _117  and  _118
REMARK   47  A    between atoms: _121  and  _123
REMARK   48  A    between atoms: _123  and  _124
REMARK   49  A    between atoms: _123  and  _126
REMARK   50  A    between atoms: _126  and  _127
REMARK   51  A    between atoms: _132  and  _133
REMARK   52  A    between atoms: _135  and  _137
REMARK   53  A    between atoms: _137  and  _138
REMARK   54  A    between atoms: _137  and  _140
REMARK   55  A    between atoms: _140  and  _141
REMARK   56  A    between atoms: _141  and  _142
REMARK   57  A    between atoms: _142  and  _143
REMARK   58  A    between atoms: _143  and  _144
REMARK   59  A    between atoms: _148  and  _150
REMARK   60  A    between atoms: _150  and  _151
REMARK   61  A    between atoms: _150  and  _153
REMARK   62  A    between atoms: _153  and  _154
REMARK   63  A    between atoms: _154  and  _155
REMARK   64  A    between atoms: _158  and  _160
REMARK   65  A    between atoms: _160  and  _161
REMARK   66  A    between atoms: _160  and  _163
REMARK   67  A    between atoms: _163  and  _164
REMARK   68  A    between atoms: _167  and  _169
REMARK   69  A    between atoms: _169  and  _170
REMARK   70  A    between atoms: _169  and  _172
REMARK   71  A    between atoms: _172  and  _173
REMARK   72  A    between atoms: _175  and  _177
REMARK   73  A    between atoms: _177  and  _178
REMARK   74  A    between atoms: _177  and  _180
REMARK   75  A    between atoms: _183  and  _185
REMARK   76  A    between atoms: _185  and  _186
REMARK   77  A    between atoms: _189  and  _191
REMARK   78  A    between atoms: _191  and  _192
REMARK   79  A    between atoms: _191  and  _194
REMARK   80  A    between atoms: _194  and  _195
REMARK   81  A    between atoms: _195  and  _196
REMARK   82  A    between atoms: _196  and  _197
REMARK   83  A    between atoms: _197  and  _198
REMARK   84  A    between atoms: _202  and  _204
REMARK   85  A    between atoms: _204  and  _205
REMARK   86  A    between atoms: _204  and  _207
REMARK   87  A    between atoms: _207  and  _208
REMARK   88  A    between atoms: _210  and  _212
REMARK   89  A    between atoms: _212  and  _213
REMARK   90  A    between atoms: _212  and  _215
REMARK   91  A    between atoms: _215  and  _216
REMARK   92  A    between atoms: _220  and  _221
REMARK   93  A    between atoms: _226  and  _228
REMARK   94  A    between atoms: _228  and  _229
REMARK   95  A    between atoms: _228  and  _231
REMARK   96  A    between atoms: _231  and  _232
REMARK   97  A    between atoms: _235  and  _237
REMARK   98  A    between atoms: _237  and  _238
REMARK   99  A    between atoms: _237  and  _240
REMARK  100  A    between atoms: _240  and  _241
REMARK  101  A    between atoms: _241  and  _242
REMARK  102  A    between atoms: _242  and  _243
REMARK  103  A    between atoms: _243  and  _244
REMARK  104  A    between atoms: _248  and  _250
REMARK  105  A    between atoms: _250  and  _251
REMARK  106  A    between atoms: _250  and  _253
REMARK                            x       y       z     vdW  Elec       q    Type
REMARK                         _______ _______ _______ _____ _____    ______ ____
ROOT
ATOM      1  CA  TRP A   3      32.362 -43.432  -3.089  0.00  0.00    +0.153 C 
ENDROOT
BRANCH   1   2
ATOM      2  C   TRP A   3      30.920 -43.213  -2.562  0.00  0.00    +0.244 C 
ATOM      3  N   PRO A   4      30.737 -42.908  -1.258  0.00  0.00    -0.272 N 
ATOM      4  CD  PRO A   4      31.675 -42.726  -0.125  0.00  0.00    +0.094 C 
ATOM      5  CG  PRO A   4      30.758 -42.545   1.086  0.00  0.00    +0.024 C 
ATOM      6  CB  PRO A   4      29.434 -43.095   0.695  0.00  0.00    +0.031 C 
ATOM      7  CA  PRO A   4      29.337 -42.751  -0.814  0.00  0.00    +0.152 C 
ATOM      8  O   TRP A   3      29.982 -43.320  -3.345  0.00  0.00    -0.273 OA
BRANCH   7   9
ATOM      9  C   PRO A   4      28.795 -41.339  -0.971  0.00  0.00    +0.241 C 
ATOM     10  O   PRO A   4      27.719 -41.053  -0.463  0.00  0.00    -0.273 OA
ATOM     11  N   SER A   5      29.548 -40.454  -1.648  0.00  0.00    -0.296 N 
ATOM     12  H   SER A   5      30.459 -40.754  -2.050  0.00  0.00    +0.150 HD
BRANCH  11  13
ATOM     13  CA  SER A   5      29.099 -39.078  -1.823  0.00  0.00    +0.166 C 
BRANCH  13  14
ATOM     14  C   SER A   5      27.963 -39.047  -2.842  0.00  0.00    +0.229 C 
ATOM     15  O   SER A   5      28.181 -39.399  -4.020  0.00  0.00    -0.286 OA
ENDBRANCH  13  14
BRANCH  13  16
ATOM     16  CB  SER A   5      30.207 -38.171  -2.367  0.00  0.00    +0.165 C 
BRANCH  16  17
ATOM     17  OG  SER A   5      29.665 -36.904  -2.731  0.00  0.00    -0.380 OA
ATOM     18  H   SER A   5      28.974 -37.030  -3.429  0.00  0.00    +0.211 HD
ENDBRANCH  16  17
ENDBRANCH  13  16
ENDBRANCH  11  13
ENDBRANCH   7   9
ENDBRANCH   1   2
BRANCH   1  20
ATOM     19  C   PHE A   2      33.282 -41.221  -2.642  0.00  0.00    +0.241 C 
ATOM     20  N   TRP A   3      33.431 -42.536  -2.610  0.00  0.00    -0.297 N 
ATOM     21  H   TRP A   3      34.314 -42.943  -2.242  0.00  0.00    +0.150 HD
ATOM     22  O   PHE A   2      32.212 -40.690  -2.828  0.00  0.00    -0.273 OA
BRANCH  19  23
ATOM     23  CA  PHE A   2      34.549 -40.360  -2.505  0.00  0.00    +0.153 C 
BRANCH  23  25
ATOM     24  C   ASP A   1      35.592 -39.211  -4.434  0.00  0.00    +0.239 C 
ATOM     25  N   PHE A   2      34.502 -39.567  -3.736  0.00  0.00    -0.297 N 
ATOM     26  H   PHE A   2      33.572 -39.263  -4.089  0.00  0.00    +0.150 HD
ATOM     27  O   ASP A   1      36.756 -39.491  -4.094  0.00  0.00    -0.274 OA
BRANCH  24  28
ATOM     28  CA  ASP A   1      35.333 -38.378  -5.694  0.00  0.00    +0.156 C 
BRANCH  28  29
ATOM     29  N   ASP A   1      36.646 -38.066  -6.321  0.00  0.00    -0.238 NA
ATOM     30  H   ASP A   1      37.463 -38.692  -6.174  0.00  0.00    +0.142 HD
ENDBRANCH  28  29
BRANCH  28  31
ATOM     31  CB  ASP A   1      34.538 -39.171  -6.743  0.00  0.00    +0.140 C 
BRANCH  31  32
ATOM     32  CG  ASP A   1      33.020 -39.145  -6.554  0.00  0.00    +0.367 C 
ATOM     33  OD2 ASP A   1      32.498 -38.798  -5.490  0.00  0.00    -0.246 OA
ATOM     34  OD1 ASP A   1      32.380 -39.587  -7.525  0.00  0.00    -0.246 OA
ENDBRANCH  31  32
ENDBRANCH  28  31
ENDBRANCH  24  28
ENDBRANCH  23  25
BRANCH  23  35
ATOM     35  CB  PHE A   2      34.477 -39.379  -1.320  0.00  0.00    +0.055 C 
BRANCH  35  36
ATOM     36  CG  PHE A   2      34.223 -40.032   0.036  0.00  0.00    -0.020 A 
ATOM     37  CD2 PHE A   2      33.279 -39.493   0.912  0.00  0.00    -0.004 A 
ATOM     38  CE2 PHE A   2      33.063 -40.078   2.184  0.00  0.00    -0.000 A 
ATOM     39  CZ  PHE A   2      33.815 -41.184   2.559  0.00  0.00    -0.000 A 
ATOM     40  CE1 PHE A   2      34.760 -41.728   1.708  0.00  0.00    -0.000 A 
ATOM     41  CD1 PHE A   2      34.977 -41.120   0.445  0.00  0.00    -0.004 A 
ENDBRANCH  35  36
ENDBRANCH  23  35
ENDBRANCH  19  23
ENDBRANCH   1  20
BRANCH   1  42
ATOM     42  CB  TRP A   3      32.788 -44.911  -2.981  0.00  0.00    +0.057 C 
BRANCH  42  43
ATOM     43  CG  TRP A   3      32.897 -45.441  -1.581  0.00  0.00    -0.002 A 
ATOM     44  CD2 TRP A   3      31.847 -46.010  -0.797  0.00  0.00    +0.013 A 
ATOM     45  CE2 TRP A   3      32.398 -46.344   0.461  0.00  0.00    +0.056 A 
ATOM     46  CZ2 TRP A   3      31.625 -46.929   1.501  0.00  0.00    +0.017 A 
ATOM     47  CH2 TRP A   3      30.284 -47.150   1.256  0.00  0.00    +0.001 A 
ATOM     48  CZ3 TRP A   3      29.693 -46.813   0.011  0.00  0.00    +0.000 A 
ATOM     49  NE1 TRP A   3      33.739 -46.019   0.429  0.00  0.00    -0.352 N 
ATOM     50  HE1 TRP A   3      34.417 -46.159   1.205  0.00  0.00    +0.166 HD
ATOM     51  CE3 TRP A   3      30.468 -46.231  -1.024  0.00  0.00    +0.001 A 
ATOM     52  CD1 TRP A   3      34.028 -45.478  -0.805  0.00  0.00    +0.068 A 
ENDBRANCH  42  43
ENDBRANCH   1  42
TORSDOF 17
REMARK  Name = ../refined-set-2016/2vo4/2vo4_pocket.pdb
REMARK  106 active torsions:
REMARK  status: ('A' for Active; 'I' for Inactive)
REMARK    1  A    between atoms: _1  and  _3
REMARK    2  A    between atoms: _3  and  _4
REMARK    3  A    between atoms: _3  and  _6
REMARK    4  A    between atoms: _6  and  _7
REMARK    5  A    between atoms: _10  and  _12
REMARK    6  A    between atoms: _12  and  _13
REMARK    7  A    between atoms: _12  and  _15
REMARK    8  A    between atoms: _15  and  _16
REMARK    9  A    between atoms: _19  and  _21
REMARK   10  A    between atoms: _21  and  _22
REMARK   11  A    between atoms: _21  and  _24
REMARK   12  A    between atoms: _24  and  _25
REMARK   13  A    between atoms: _31  and  _33
REMARK   14  A    between atoms: _33  and  _34
REMARK   15  A    between atoms: _33  and  _36
REMARK   16  A    between atoms: _36  and  _37
REMARK   17  A    between atoms: _48  and  _49
REMARK   18  A    between atoms: _54  and  _56
REMARK   19  A    between atoms: _56  and  _57
REMARK   20  A    between atoms: _56  and  _59
REMARK   21  A    between atoms: _59  and  _60
REMARK   22  A    between atoms: _62  and  _64
REMARK   23  A    between atoms: _64  and  _65
REMARK   24  A    between atoms: _64  and  _67
REMARK   25  A    between atoms: _67  and  _68
REMARK   26  A    between atoms: _68  and  _69
REMARK   27  A    between atoms: _71  and  _73
REMARK   28  A    between atoms: _73  and  _74
REMARK   29  A    between atoms: _73  and  _76
REMARK   30  A    between atoms: _76  and  _77
REMARK   31  A    between atoms: _77  and  _78
REMARK   32  A    between atoms: _78  and  _79
REMARK   33  A    between atoms: _88  and  _90
REMARK   34  A    between atoms: _90  and  _91
REMARK   35  A    between atoms: _90  and  _93
REMARK   36  A    between atoms: _93  and  _94
REMARK   37  A    between atoms: _97  and  _99
REMARK   38  A    between atoms: _99  and  _100
REMARK   39  A    between atoms: _99  and  _102
REMARK   40  A    between atoms: _102  and  _103
REMARK   41  A    between atoms: _108  and  _109
REMARK   42  A    between atoms: _111  and  _113
REMARK   43  A    between atoms: _113  and  _114
REMARK   44  A    between atoms: _113  and  _116
REMARK   45  A    between atoms: _116  and  _117
REMARK   46  A    between atoms: _117  and  _118
REMARK   47  A    between atoms: _121  and  _123
REMARK   48  A    between atoms: _123  and  _124
REMARK   49  A    between atoms: _123  and  _126
REMARK   50  A    between atoms: _126  and  _127
REMARK   51  A    between atoms: _132  and  _133
REMARK   52  A    between atoms: _135  and  _137
REMARK   53  A    between atoms: _137  and  _138
REMARK   54  A    between atoms: _137  and  _140
REMARK   55  A    between atoms: _140  and  _141
REMARK   56  A    between atoms: _141  and  _142
REMARK   57  A    between atoms: _142  and  _143
REMARK   58  A    between atoms: _143  and  _144
REMARK   59  A    between atoms: _148  and  _150
REMARK   60  A    between atoms: _150  and  _151
REMARK   61  A    between atoms: _150  and  _153
REMARK   62  A    between atoms: _153  and  _154
REMARK   63  A    between atoms: _154  and  _155
REMARK   64  A    between atoms: _158  and  _160
REMARK   65  A    between atoms: _160  and  _161
REMARK   66  A    between atoms: _160  and  _163
REMARK   67  A    between atoms: _163  and  _164
REMARK   68  A    between atoms: _167  and  _169
REMARK   69  A    between atoms: _169  and  _170
REMARK   70  A    between atoms: _169  and  _172
REMARK   71  A    between atoms: _172  and  _173
REMARK   72  A    between atoms: _175  and  _177
REMARK   73  A    between atoms: _177  and  _178
REMARK   74  A    between atoms: _177  and  _180
REMARK   75  A    between atoms: _183  and  _185
REMARK   76  A    between atoms: _185  and  _186
REMARK   77  A    between atoms: _189  and  _191
REMARK   78  A    between atoms: _191  and  _192
REMARK   79  A    between atoms: _191  and  _194
REMARK   80  A    between atoms: _194  and  _195
REMARK   81  A    between atoms: _195  and  _196
REMARK   82  A    between atoms: _196  and  _197
REMARK   83  A    between atoms: _197  and  _198
REMARK   84  A    between atoms: _202  and  _204
REMARK   85  A    between atoms: _204  and  _205
REMARK   86  A    between atoms: _204  and  _207
REMARK   87  A    between atoms: _207  and  _208
REMARK   88  A    between atoms: _210  and  _212
REMARK   89  A    between atoms: _212  and  _213
REMARK   90  A    between atoms: _212  and  _215
REMARK   91  A    between atoms: _215  and  _216
REMARK   92  A    between atoms: _220  and  _221
REMARK   93  A    between atoms: _226  and  _228
REMARK   94  A    between atoms: _228  and  _229
REMARK   95  A    between atoms: _228  and  _231
REMARK   96  A    between atoms: _231  and  _232
REMARK   97  A    between atoms: _235  and  _237
REMARK   98  A    between atoms: _237  and  _238
REMARK   99  A    between atoms: _237  and  _240
REMARK  100  A    between atoms: _240  and  _241
REMARK  101  A    between atoms: _241  and  _242
REMARK  102  A    between atoms: _242  and  _243
REMARK  103  A    between atoms: _243  and  _244
REMARK  104  A    between atoms: _248  and  _250
REMARK  105  A    between atoms: _250  and  _251
REMARK  106  A    between atoms: _250  and  _253
REMARK                            x       y       z     vdW  Elec       q    Type
REMARK                         _______ _______ _______ _____ _____    ______ ____
ROOT
ATOM      1  CA  MET A   1      27.355 -40.029  -7.791  0.00  0.00    +0.134 C 
ENDROOT
BRANCH   1   2
ATOM      2  N   MET A   1      28.179 -39.109  -6.976  0.00  0.00    -0.239 NA
ATOM      3  H   MET A   1      27.996 -39.023  -5.956  0.00  0.00    +0.142 HD
ENDBRANCH   1   2
BRANCH   1   4
ATOM      4  C   MET A   1      26.669 -39.299  -8.947  0.00  0.00    +0.224 C 
ATOM      5  O   MET A   1      26.526 -39.852 -10.033  0.00  0.00    -0.287 OA
ENDBRANCH   1   4
BRANCH   1   6
ATOM      6  CB  MET A   1      26.290 -40.720  -6.924  0.00  0.00    +0.037 C 
BRANCH   6   7
ATOM      7  CG  MET A   1      26.896 -41.637  -5.882  0.00  0.00    +0.059 C 
BRANCH   7   8
ATOM      8  SD  MET A   1      25.564 -42.237  -4.802  0.00  0.00    -0.139 S 
ATOM      9  CE  MET A   1      26.499 -42.430  -3.289  0.00  0.00    +0.069 C 
ENDBRANCH   7   8
ENDBRANCH   6   7
ENDBRANCH   1   6
TORSDOF 5
REMARK  Name = ../refined-set-2016/2vo4/2vo4_pocket.pdb
REMARK  106 active torsions:
REMARK  status: ('A' for Active; 'I' for Inactive)
REMARK    1  A    between atoms: _1  and  _3
REMARK    2  A    between atoms: _3  and  _4
REMARK    3  A    between atoms: _3  and  _6
REMARK    4  A    between atoms: _6  and  _7
REMARK    5  A    between atoms: _10  and  _12
REMARK    6  A    between atoms: _12  and  _13
REMARK    7  A    between atoms: _12  and  _15
REMARK    8  A    between atoms: _15  and  _16
REMARK    9  A    between atoms: _19  and  _21
REMARK   10  A    between atoms: _21  and  _22
REMARK   11  A    between atoms: _21  and  _24
REMARK   12  A    between atoms: _24  and  _25
REMARK   13  A    between atoms: _31  and  _33
REMARK   14  A    between atoms: _33  and  _34
REMARK   15  A    between atoms: _33  and  _36
REMARK   16  A    between atoms: _36  and  _37
REMARK   17  A    between atoms: _48  and  _49
REMARK   18  A    between atoms: _54  and  _56
REMARK   19  A    between atoms: _56  and  _57
REMARK   20  A    between atoms: _56  and  _59
REMARK   21  A    between atoms: _59  and  _60
REMARK   22  A    between atoms: _62  and  _64
REMARK   23  A    between atoms: _64  and  _65
REMARK   24  A    between atoms: _64  and  _67
REMARK   25  A    between atoms: _67  and  _68
REMARK   26  A    between atoms: _68  and  _69
REMARK   27  A    between atoms: _71  and  _73
REMARK   28  A    between atoms: _73  and  _74
REMARK   29  A    between atoms: _73  and  _76
REMARK   30  A    between atoms: _76  and  _77
REMARK   31  A    between atoms: _77  and  _78
REMARK   32  A    between atoms: _78  and  _79
REMARK   33  A    between atoms: _88  and  _90
REMARK   34  A    between atoms: _90  and  _91
REMARK   35  A    between atoms: _90  and  _93
REMARK   36  A    between atoms: _93  and  _94
REMARK   37  A    between atoms: _97  and  _99
REMARK   38  A    between atoms: _99  and  _100
REMARK   39  A    between atoms: _99  and  _102
REMARK   40  A    between atoms: _102  and  _103
REMARK   41  A    between atoms: _108  and  _109
REMARK   42  A    between atoms: _111  and  _113
REMARK   43  A    between atoms: _113  and  _114
REMARK   44  A    between atoms: _113  and  _116
REMARK   45  A    between atoms: _116  and  _117
REMARK   46  A    between atoms: _117  and  _118
REMARK   47  A    between atoms: _121  and  _123
REMARK   48  A    between atoms: _123  and  _124
REMARK   49  A    between atoms: _123  and  _126
REMARK   50  A    between atoms: _126  and  _127
REMARK   51  A    between atoms: _132  and  _133
REMARK   52  A    between atoms: _135  and  _137
REMARK   53  A    between atoms: _137  and  _138
REMARK   54  A    between atoms: _137  and  _140
REMARK   55  A    between atoms: _140  and  _141
REMARK   56  A    between atoms: _141  and  _142
REMARK   57  A    between atoms: _142  and  _143
REMARK   58  A    between atoms: _143  and  _144
REMARK   59  A    between atoms: _148  and  _150
REMARK   60  A    between atoms: _150  and  _151
REMARK   61  A    between atoms: _150  and  _153
REMARK   62  A    between atoms: _153  and  _154
REMARK   63  A    between atoms: _154  and  _155
REMARK   64  A    between atoms: _158  and  _160
REMARK   65  A    between atoms: _160  and  _161
REMARK   66  A    between atoms: _160  and  _163
REMARK   67  A    between atoms: _163  and  _164
REMARK   68  A    between atoms: _167  and  _169
REMARK   69  A    between atoms: _169  and  _170
REMARK   70  A    between atoms: _169  and  _172
REMARK   71  A    between atoms: _172  and  _173
REMARK   72  A    between atoms: _175  and  _177
REMARK   73  A    between atoms: _177  and  _178
REMARK   74  A    between atoms: _177  and  _180
REMARK   75  A    between atoms: _183  and  _185
REMARK   76  A    between atoms: _185  and  _186
REMARK   77  A    between atoms: _189  and  _191
REMARK   78  A    between atoms: _191  and  _192
REMARK   79  A    between atoms: _191  and  _194
REMARK   80  A    between atoms: _194  and  _195
REMARK   81  A    between atoms: _195  and  _196
REMARK   82  A    between atoms: _196  and  _197
REMARK   83  A    between atoms: _197  and  _198
REMARK   84  A    between atoms: _202  and  _204
REMARK   85  A    between atoms: _204  and  _205
REMARK   86  A    between atoms: _204  and  _207
REMARK   87  A    between atoms: _207  and  _208
REMARK   88  A    between atoms: _210  and  _212
REMARK   89  A    between atoms: _212  and  _213
REMARK   90  A    between atoms: _212  and  _215
REMARK   91  A    between atoms: _215  and  _216
REMARK   92  A    between atoms: _220  and  _221
REMARK   93  A    between atoms: _226  and  _228
REMARK   94  A    between atoms: _228  and  _229
REMARK   95  A    between atoms: _228  and  _231
REMARK   96  A    between atoms: _231  and  _232
REMARK   97  A    between atoms: _235  and  _237
REMARK   98  A    between atoms: _237  and  _238
REMARK   99  A    between atoms: _237  and  _240
REMARK  100  A    between atoms: _240  and  _241
REMARK  101  A    between atoms: _241  and  _242
REMARK  102  A    between atoms: _242  and  _243
REMARK  103  A    between atoms: _243  and  _244
REMARK  104  A    between atoms: _248  and  _250
REMARK  105  A    between atoms: _250  and  _251
REMARK  106  A    between atoms: _250  and  _253
REMARK                            x       y       z     vdW  Elec       q    Type
REMARK                         _______ _______ _______ _____ _____    ______ ____
ROOT
ATOM      1  CA  ARG A   1      29.416 -40.542 -12.217  0.00  0.00    +0.145 C 
ENDROOT
BRANCH   1   2
ATOM      2  C   ARG A   1      28.263 -40.904 -13.162  0.00  0.00    +0.238 C 
ATOM      3  N   ILE A   2      27.029 -40.621 -12.748  0.00  0.00    -0.298 N 
ATOM      4  H   ILE A   2      26.883 -40.211 -11.804  0.00  0.00    +0.150 HD
ATOM      5  O   ARG A   1      28.509 -41.384 -14.292  0.00  0.00    -0.274 OA
BRANCH   3   6
ATOM      6  CA  ILE A   2      25.867 -40.885 -13.618  0.00  0.00    +0.137 C 
BRANCH   6   7
ATOM      7  CB  ILE A   2      24.497 -40.620 -12.976  0.00  0.00    +0.026 C 
ATOM      8  CG2 ILE A   2      23.414 -40.947 -14.031  0.00  0.00    +0.002 C 
BRANCH   7   9
ATOM      9  CG1 ILE A   2      24.316 -41.503 -11.708  0.00  0.00    +0.002 C 
ATOM     10  CD1 ILE A   2      23.166 -41.006 -10.823  0.00  0.00    +0.000 C 
ENDBRANCH   7   9
ENDBRANCH   6   7
BRANCH   6  11
ATOM     11  C   ILE A   2      25.944 -40.110 -14.933  0.00  0.00    +0.227 C 
ATOM     12  O   ILE A   2      25.781 -40.693 -16.018  0.00  0.00    -0.286 OA
ENDBRANCH   6  11
ENDBRANCH   3   6
ENDBRANCH   1   2
BRANCH   1  13
ATOM     13  N   ARG A   1      29.224 -39.162 -11.705  0.00  0.00    -0.238 NA
ATOM     14  H   ARG A   1      29.164 -39.012 -10.678  0.00  0.00    +0.142 HD
ENDBRANCH   1  13
BRANCH   1  15
ATOM     15  CB  ARG A   1      29.483 -41.565 -11.078  0.00  0.00    +0.030 C 
BRANCH  15  16
ATOM     16  CG  ARG A   1      30.662 -41.371 -10.212  0.00  0.00    +0.045 C 
BRANCH  16  17
ATOM     17  CD  ARG A   1      30.579 -42.315  -9.026  0.00  0.00    +0.174 C 
BRANCH  17  18
ATOM     18  NE  ARG A   1      30.750 -41.572  -7.770  0.00  0.00    -0.265 N 
ATOM     19  CZ  ARG A   1      30.448 -42.093  -6.566  0.00  0.00    +0.342 C 
ATOM     20  NH2 ARG A   1      30.675 -41.404  -5.460  0.00  0.00    -0.292 N 
ATOM     21 HH21 ARG A   1      30.439 -41.814  -4.534  0.00  0.00    +0.255 HD
ATOM     22 HH22 ARG A   1      31.090 -40.452  -5.516  0.00  0.00    +0.255 HD
ATOM     23  NH1 ARG A   1      29.909 -43.304  -6.474  0.00  0.00    -0.292 N 
ATOM     24 HH11 ARG A   1      29.678 -43.701  -5.541  0.00  0.00    +0.255 HD
ATOM     25 HH12 ARG A   1      29.718 -43.855  -7.335  0.00  0.00    +0.255 HD
ATOM     26  HE  ARG A   1      31.121 -40.601  -7.813  0.00  0.00    +0.259 HD
ENDBRANCH  17  18
ENDBRANCH  16  17
ENDBRANCH  15  16
ENDBRANCH   1  15
TORSDOF 10
REMARK  Name = ../refined-set-2016/2vo4/2vo4_pocket.pdb
REMARK  106 active torsions:
REMARK  status: ('A' for Active; 'I' for Inactive)
REMARK    1  A    between atoms: _1  and  _3
REMARK    2  A    between atoms: _3  and  _4
REMARK    3  A    between atoms: _3  and  _6
REMARK    4  A    between atoms: _6  and  _7
REMARK    5  A    between atoms: _10  and  _12
REMARK    6  A    between atoms: _12  and  _13
REMARK    7  A    between atoms: _12  and  _15
REMARK    8  A    between atoms: _15  and  _16
REMARK    9  A    between atoms: _19  and  _21
REMARK   10  A    between atoms: _21  and  _22
REMARK   11  A    between atoms: _21  and  _24
REMARK   12  A    between atoms: _24  and  _25
REMARK   13  A    between atoms: _31  and  _33
REMARK   14  A    between atoms: _33  and  _34
REMARK   15  A    between atoms: _33  and  _36
REMARK   16  A    between atoms: _36  and  _37
REMARK   17  A    between atoms: _48  and  _49
REMARK   18  A    between atoms: _54  and  _56
REMARK   19  A    between atoms: _56  and  _57
REMARK   20  A    between atoms: _56  and  _59
REMARK   21  A    between atoms: _59  and  _60
REMARK   22  A    between atoms: _62  and  _64
REMARK   23  A    between atoms: _64  and  _65
REMARK   24  A    between atoms: _64  and  _67
REMARK   25  A    between atoms: _67  and  _68
REMARK   26  A    between atoms: _68  and  _69
REMARK   27  A    between atoms: _71  and  _73
REMARK   28  A    between atoms: _73  and  _74
REMARK   29  A    between atoms: _73  and  _76
REMARK   30  A    between atoms: _76  and  _77
REMARK   31  A    between atoms: _77  and  _78
REMARK   32  A    between atoms: _78  and  _79
REMARK   33  A    between atoms: _88  and  _90
REMARK   34  A    between atoms: _90  and  _91
REMARK   35  A    between atoms: _90  and  _93
REMARK   36  A    between atoms: _93  and  _94
REMARK   37  A    between atoms: _97  and  _99
REMARK   38  A    between atoms: _99  and  _100
REMARK   39  A    between atoms: _99  and  _102
REMARK   40  A    between atoms: _102  and  _103
REMARK   41  A    between atoms: _108  and  _109
REMARK   42  A    between atoms: _111  and  _113
REMARK   43  A    between atoms: _113  and  _114
REMARK   44  A    between atoms: _113  and  _116
REMARK   45  A    between atoms: _116  and  _117
REMARK   46  A    between atoms: _117  and  _118
REMARK   47  A    between atoms: _121  and  _123
REMARK   48  A    between atoms: _123  and  _124
REMARK   49  A    between atoms: _123  and  _126
REMARK   50  A    between atoms: _126  and  _127
REMARK   51  A    between atoms: _132  and  _133
REMARK   52  A    between atoms: _135  and  _137
REMARK   53  A    between atoms: _137  and  _138
REMARK   54  A    between atoms: _137  and  _140
REMARK   55  A    between atoms: _140  and  _141
REMARK   56  A    between atoms: _141  and  _142
REMARK   57  A    between atoms: _142  and  _143
REMARK   58  A    between atoms: _143  and  _144
REMARK   59  A    between atoms: _148  and  _150
REMARK   60  A    between atoms: _150  and  _151
REMARK   61  A    between atoms: _150  and  _153
REMARK   62  A    between atoms: _153  and  _154
REMARK   63  A    between atoms: _154  and  _155
REMARK   64  A    between atoms: _158  and  _160
REMARK   65  A    between atoms: _160  and  _161
REMARK   66  A    between atoms: _160  and  _163
REMARK   67  A    between atoms: _163  and  _164
REMARK   68  A    between atoms: _167  and  _169
REMARK   69  A    between atoms: _169  and  _170
REMARK   70  A    between atoms: _169  and  _172
REMARK   71  A    between atoms: _172  and  _173
REMARK   72  A    between atoms: _175  and  _177
REMARK   73  A    between atoms: _177  and  _178
REMARK   74  A    between atoms: _177  and  _180
REMARK   75  A    between atoms: _183  and  _185
REMARK   76  A    between atoms: _185  and  _186
REMARK   77  A    between atoms: _189  and  _191
REMARK   78  A    between atoms: _191  and  _192
REMARK   79  A    between atoms: _191  and  _194
REMARK   80  A    between atoms: _194  and  _195
REMARK   81  A    between atoms: _195  and  _196
REMARK   82  A    between atoms: _196  and  _197
REMARK   83  A    between atoms: _197  and  _198
REMARK   84  A    between atoms: _202  and  _204
REMARK   85  A    between atoms: _204  and  _205
REMARK   86  A    between atoms: _204  and  _207
REMARK   87  A    between atoms: _207  and  _208
REMARK   88  A    between atoms: _210  and  _212
REMARK   89  A    between atoms: _212  and  _213
REMARK   90  A    between atoms: _212  and  _215
REMARK   91  A    between atoms: _215  and  _216
REMARK   92  A    between atoms: _220  and  _221
REMARK   93  A    between atoms: _226  and  _228
REMARK   94  A    between atoms: _228  and  _229
REMARK   95  A    between atoms: _228  and  _231
REMARK   96  A    between atoms: _231  and  _232
REMARK   97  A    between atoms: _235  and  _237
REMARK   98  A    between atoms: _237  and  _238
REMARK   99  A    between atoms: _237  and  _240
REMARK  100  A    between atoms: _240  and  _241
REMARK  101  A    between atoms: _241  and  _242
REMARK  102  A    between atoms: _242  and  _243
REMARK  103  A    between atoms: _243  and  _244
REMARK  104  A    between atoms: _248  and  _250
REMARK  105  A    between atoms: _250  and  _251
REMARK  106  A    between atoms: _250  and  _253
REMARK                            x       y       z     vdW  Elec       q    Type
REMARK                         _______ _______ _______ _____ _____    ______ ____
ROOT
ATOM      1  CA  TYR A   3      38.090 -42.325 -11.107  0.00  0.00    +0.153 C 
ENDROOT
BRANCH   1   3
ATOM      2  C   GLU A   2      38.997 -41.644 -13.261  0.00  0.00    +0.241 C 
ATOM      3  N   TYR A   3      38.639 -42.609 -12.426  0.00  0.00    -0.297 N 
ATOM      4  H   TYR A   3      38.754 -43.599 -12.722  0.00  0.00    +0.150 HD
ATOM      5  O   GLU A   2      38.841 -40.446 -13.001  0.00  0.00    -0.273 OA
BRANCH   2   6
ATOM      6  CA  GLU A   2      39.588 -42.100 -14.581  0.00  0.00    +0.149 C 
BRANCH   6   8
ATOM      7  C   TYR A   1      37.941 -42.142 -16.390  0.00  0.00    +0.239 C 
ATOM      8  N   GLU A   2      38.857 -41.491 -15.670  0.00  0.00    -0.297 N 
ATOM      9  H   GLU A   2      39.055 -40.497 -15.904  0.00  0.00    +0.150 HD
ATOM     10  O   TYR A   1      37.630 -43.365 -16.239  0.00  0.00    -0.274 OA
BRANCH   7  11
ATOM     11  CA  TYR A   1      37.253 -41.287 -17.426  0.00  0.00    +0.149 C 
BRANCH  11  12
ATOM     12  N   TYR A   1      36.574 -42.113 -18.445  0.00  0.00    -0.238 NA
ATOM     13  H   TYR A   1      36.201 -43.051 -18.197  0.00  0.00    +0.142 HD
ENDBRANCH  11  12
BRANCH  11  14
ATOM     14  CB  TYR A   1      36.245 -40.346 -16.745  0.00  0.00    +0.053 C 
BRANCH  14  15
ATOM     15  CG  TYR A   1      35.276 -40.996 -15.826  0.00  0.00    -0.020 A 
ATOM     16  CD2 TYR A   1      35.462 -40.923 -14.462  0.00  0.00    -0.001 A 
ATOM     17  CE2 TYR A   1      34.574 -41.504 -13.587  0.00  0.00    +0.036 A 
ATOM     18  CZ  TYR A   1      33.461 -42.176 -14.054  0.00  0.00    +0.134 A 
ATOM     19  CE1 TYR A   1      33.215 -42.261 -15.420  0.00  0.00    +0.036 A 
ATOM     20  CD1 TYR A   1      34.131 -41.666 -16.311  0.00  0.00    -0.001 A 
BRANCH  18  21
ATOM     21  OH  TYR A   1      32.631 -42.735 -13.130  0.00  0.00    -0.506 OA
ATOM     22  HH  TYR A   1      31.879 -43.183 -13.592  0.00  0.00    +0.292 HD
ENDBRANCH  18  21
ENDBRANCH  14  15
ENDBRANCH  11  14
ENDBRANCH   7  11
ENDBRANCH   6   8
BRANCH   6  23
ATOM     23  CB  GLU A   2      41.086 -41.698 -14.670  0.00  0.00    +0.041 C 
BRANCH  23  24
ATOM     24  CG  GLU A   2      41.810 -42.110 -13.408  0.00  0.00    +0.116 C 
BRANCH  24  25
ATOM     25  CD  GLU A   2      43.227 -41.592 -13.317  0.00  0.00    +0.365 C 
ATOM     26  OE2 GLU A   2      43.926 -42.073 -12.397  0.00  0.00    -0.246 OA
ATOM     27  OE1 GLU A   2      43.619 -40.704 -14.122  0.00  0.00    -0.246 OA
ENDBRANCH  24  25
ENDBRANCH  23  24
ENDBRANCH   6  23
ENDBRANCH   2   6
ENDBRANCH   1   3
BRANCH   1  28
ATOM     28  C   TYR A   3      39.203 -42.349 -10.060  0.00  0.00    +0.241 C 
ATOM     29  N   LYS A   4      39.272 -41.305  -9.238  0.00  0.00    -0.297 N 
ATOM     30  H   LYS A   4      38.586 -40.529  -9.338  0.00  0.00    +0.150 HD
ATOM     31  O   TYR A   3      40.019 -43.289 -10.025  0.00  0.00    -0.273 OA
BRANCH  29  32
ATOM     32  CA  LYS A   4      40.286 -41.231  -8.207  0.00  0.00    +0.149 C 
BRANCH  32  33
ATOM     33  C   LYS A   4      39.600 -41.022  -6.884  0.00  0.00    +0.241 C 
ATOM     34  N   GLU A   5      39.747 -41.996  -5.996  0.00  0.00    -0.298 N 
ATOM     35  H   GLU A   5      40.312 -42.831  -6.252  0.00  0.00    +0.150 HD
ATOM     36  O   LYS A   4      38.899 -40.025  -6.699  0.00  0.00    -0.273 OA
BRANCH  34  37
ATOM     37  CA  GLU A   5      39.137 -41.930  -4.665  0.00  0.00    +0.137 C 
BRANCH  37  38
ATOM     38  C   GLU A   5      39.952 -41.082  -3.678  0.00  0.00    +0.227 C 
ATOM     39  O   GLU A   5      41.172 -41.298  -3.472  0.00  0.00    -0.286 OA
ENDBRANCH  37  38
BRANCH  37  40
ATOM     40  CB  GLU A   5      38.959 -43.334  -4.082  0.00  0.00    +0.039 C 
BRANCH  40  41
ATOM     41  CG  GLU A   5      38.318 -43.332  -2.692  0.00  0.00    +0.116 C 
BRANCH  41  42
ATOM     42  CD  GLU A   5      36.797 -43.384  -2.726  0.00  0.00    +0.365 C 
ATOM     43  OE2 GLU A   5      36.187 -43.088  -1.680  0.00  0.00    -0.246 OA
ATOM     44  OE1 GLU A   5      36.230 -43.727  -3.782  0.00  0.00    -0.246 OA
ENDBRANCH  41  42
ENDBRANCH  40  41
ENDBRANCH  37  40
ENDBRANCH  34  37
ENDBRANCH  32  33
BRANCH  32  45
ATOM     45  CB  LYS A   4      41.265 -40.079  -8.424  0.00  0.00    +0.029 C 
BRANCH  45  46
ATOM     46  CG  LYS A   4      42.091 -40.184  -9.696  0.00  0.00    +0.000 C 
BRANCH  46  47
ATOM     47  CD  LYS A   4      43.151 -39.098  -9.729  0.00  0.00    -0.024 C 
BRANCH  47  48
ATOM     48  CE  LYS A   4      44.488 -39.673  -9.220  0.00  0.00    -0.086 C 
BRANCH  48  49
ATOM     49  NZ  LYS A   4      45.192 -40.461 -10.298  0.00  0.00    +0.380 N 
ATOM     50  HZ1 LYS A   4      46.088 -40.834  -9.924  0.00  0.00    -0.089 HD
ATOM     51  HZ2 LYS A   4      44.586 -41.250 -10.601  0.00  0.00    -0.089 HD
ATOM     52  HZ3 LYS A   4      45.386 -39.840 -11.109  0.00  0.00    -0.089 HD
ENDBRANCH  48  49
ENDBRANCH  47  48
ENDBRANCH  46  47
ENDBRANCH  45  46
ENDBRANCH  32  45
ENDBRANCH  29  32
ENDBRANCH   1  28
BRANCH   1  53
ATOM     53  CB  TYR A   3      37.014 -43.373 -10.788  0.00  0.00    +0.055 C 
BRANCH  53  54
ATOM     54  CG  TYR A   3      36.349 -43.156  -9.475  0.00  0.00    -0.020 A 
ATOM     55  CD2 TYR A   3      36.863 -43.724  -8.327  0.00  0.00    -0.001 A 
ATOM     56  CE2 TYR A   3      36.266 -43.551  -7.094  0.00  0.00    +0.036 A 
ATOM     57  CZ  TYR A   3      35.106 -42.812  -7.002  0.00  0.00    +0.134 A 
ATOM     58  CE1 TYR A   3      34.546 -42.231  -8.132  0.00  0.00    +0.036 A 
ATOM     59  CD1 TYR A   3      35.170 -42.420  -9.378  0.00  0.00    -0.001 A 
BRANCH  57  60
ATOM     60  OH  TYR A   3      34.544 -42.684  -5.754  0.00  0.00    -0.506 OA
ATOM     61  HH  TYR A   3      35.189 -42.243  -5.146  0.00  0.00    +0.292 HD
ENDBRANCH  57  60
ENDBRANCH  53  54
ENDBRANCH   1  53
TORSDOF 27
REMARK  Name = ../refined-set-2016/2vo4/2vo4_pocket.pdb
REMARK  106 active torsions:
REMARK  status: ('A' for Active; 'I' for Inactive)
REMARK    1  A    between atoms: _1  and  _3
REMARK    2  A    between atoms: _3  and  _4
REMARK    3  A    between atoms: _3  and  _6
REMARK    4  A    between atoms: _6  and  _7
REMARK    5  A    between atoms: _10  and  _12
REMARK    6  A    between atoms: _12  and  _13
REMARK    7  A    between atoms: _12  and  _15
REMARK    8  A    between atoms: _15  and  _16
REMARK    9  A    between atoms: _19  and  _21
REMARK   10  A    between atoms: _21  and  _22
REMARK   11  A    between atoms: _21  and  _24
REMARK   12  A    between atoms: _24  and  _25
REMARK   13  A    between atoms: _31  and  _33
REMARK   14  A    between atoms: _33  and  _34
REMARK   15  A    between atoms: _33  and  _36
REMARK   16  A    between atoms: _36  and  _37
REMARK   17  A    between atoms: _48  and  _49
REMARK   18  A    between atoms: _54  and  _56
REMARK   19  A    between atoms: _56  and  _57
REMARK   20  A    between atoms: _56  and  _59
REMARK   21  A    between atoms: _59  and  _60
REMARK   22  A    between atoms: _62  and  _64
REMARK   23  A    between atoms: _64  and  _65
REMARK   24  A    between atoms: _64  and  _67
REMARK   25  A    between atoms: _67  and  _68
REMARK   26  A    between atoms: _68  and  _69
REMARK   27  A    between atoms: _71  and  _73
REMARK   28  A    between atoms: _73  and  _74
REMARK   29  A    between atoms: _73  and  _76
REMARK   30  A    between atoms: _76  and  _77
REMARK   31  A    between atoms: _77  and  _78
REMARK   32  A    between atoms: _78  and  _79
REMARK   33  A    between atoms: _88  and  _90
REMARK   34  A    between atoms: _90  and  _91
REMARK   35  A    between atoms: _90  and  _93
REMARK   36  A    between atoms: _93  and  _94
REMARK   37  A    between atoms: _97  and  _99
REMARK   38  A    between atoms: _99  and  _100
REMARK   39  A    between atoms: _99  and  _102
REMARK   40  A    between atoms: _102  and  _103
REMARK   41  A    between atoms: _108  and  _109
REMARK   42  A    between atoms: _111  and  _113
REMARK   43  A    between atoms: _113  and  _114
REMARK   44  A    between atoms: _113  and  _116
REMARK   45  A    between atoms: _116  and  _117
REMARK   46  A    between atoms: _117  and  _118
REMARK   47  A    between atoms: _121  and  _123
REMARK   48  A    between atoms: _123  and  _124
REMARK   49  A    between atoms: _123  and  _126
REMARK   50  A    between atoms: _126  and  _127
REMARK   51  A    between atoms: _132  and  _133
REMARK   52  A    between atoms: _135  and  _137
REMARK   53  A    between atoms: _137  and  _138
REMARK   54  A    between atoms: _137  and  _140
REMARK   55  A    between atoms: _140  and  _141
REMARK   56  A    between atoms: _141  and  _142
REMARK   57  A    between atoms: _142  and  _143
REMARK   58  A    between atoms: _143  and  _144
REMARK   59  A    between atoms: _148  and  _150
REMARK   60  A    between atoms: _150  and  _151
REMARK   61  A    between atoms: _150  and  _153
REMARK   62  A    between atoms: _153  and  _154
REMARK   63  A    between atoms: _154  and  _155
REMARK   64  A    between atoms: _158  and  _160
REMARK   65  A    between atoms: _160  and  _161
REMARK   66  A    between atoms: _160  and  _163
REMARK   67  A    between atoms: _163  and  _164
REMARK   68  A    between atoms: _167  and  _169
REMARK   69  A    between atoms: _169  and  _170
REMARK   70  A    between atoms: _169  and  _172
REMARK   71  A    between atoms: _172  and  _173
REMARK   72  A    between atoms: _175  and  _177
REMARK   73  A    between atoms: _177  and  _178
REMARK   74  A    between atoms: _177  and  _180
REMARK   75  A    between atoms: _183  and  _185
REMARK   76  A    between atoms: _185  and  _186
REMARK   77  A    between atoms: _189  and  _191
REMARK   78  A    between atoms: _191  and  _192
REMARK   79  A    between atoms: _191  and  _194
REMARK   80  A    between atoms: _194  and  _195
REMARK   81  A    between atoms: _195  and  _196
REMARK   82  A    between atoms: _196  and  _197
REMARK   83  A    between atoms: _197  and  _198
REMARK   84  A    between atoms: _202  and  _204
REMARK   85  A    between atoms: _204  and  _205
REMARK   86  A    between atoms: _204  and  _207
REMARK   87  A    between atoms: _207  and  _208
REMARK   88  A    between atoms: _210  and  _212
REMARK   89  A    between atoms: _212  and  _213
REMARK   90  A    between atoms: _212  and  _215
REMARK   91  A    between atoms: _215  and  _216
REMARK   92  A    between atoms: _220  and  _221
REMARK   93  A    between atoms: _226  and  _228
REMARK   94  A    between atoms: _228  and  _229
REMARK   95  A    between atoms: _228  and  _231
REMARK   96  A    between atoms: _231  and  _232
REMARK   97  A    between atoms: _235  and  _237
REMARK   98  A    between atoms: _237  and  _238
REMARK   99  A    between atoms: _237  and  _240
REMARK  100  A    between atoms: _240  and  _241
REMARK  101  A    between atoms: _241  and  _242
REMARK  102  A    between atoms: _242  and  _243
REMARK  103  A    between atoms: _243  and  _244
REMARK  104  A    between atoms: _248  and  _250
REMARK  105  A    between atoms: _250  and  _251
REMARK  106  A    between atoms: _250  and  _253
REMARK                            x       y       z     vdW  Elec       q    Type
REMARK                         _______ _______ _______ _____ _____    ______ ____
ROOT
ATOM      1  CA  THR A   1      21.439 -44.686  -1.595  0.00  0.00    +0.160 C 
ENDROOT
BRANCH   1   2
ATOM      2  N   THR A   1      20.458 -43.776  -2.181  0.00  0.00    -0.237 NA
ATOM      3  H   THR A   1      20.764 -43.042  -2.851  0.00  0.00    +0.142 HD
ENDBRANCH   1   2
BRANCH   1   4
ATOM      4  C   THR A   1      21.632 -44.418  -0.102  0.00  0.00    +0.227 C 
ATOM      5  O   THR A   1      22.195 -45.262   0.608  0.00  0.00    -0.287 OA
ENDBRANCH   1   4
BRANCH   1   6
ATOM      6  CB  THR A   1      22.826 -44.609  -2.309  0.00  0.00    +0.134 C 
ATOM      7  CG2 THR A   1      22.660 -44.749  -3.790  0.00  0.00    +0.034 C 
BRANCH   6   8
ATOM      8  OG1 THR A   1      23.481 -43.354  -2.052  0.00  0.00    -0.383 OA
ATOM      9  HG1 THR A   1      22.915 -42.613  -2.385  0.00  0.00    +0.210 HD
ENDBRANCH   6   8
ENDBRANCH   1   6
TORSDOF 4
REMARK  Name = ../refined-set-2016/2vo4/2vo4_pocket.pdb
REMARK  106 active torsions:
REMARK  status: ('A' for Active; 'I' for Inactive)
REMARK    1  A    between atoms: _1  and  _3
REMARK    2  A    between atoms: _3  and  _4
REMARK    3  A    between atoms: _3  and  _6
REMARK    4  A    between atoms: _6  and  _7
REMARK    5  A    between atoms: _10  and  _12
REMARK    6  A    between atoms: _12  and  _13
REMARK    7  A    between atoms: _12  and  _15
REMARK    8  A    between atoms: _15  and  _16
REMARK    9  A    between atoms: _19  and  _21
REMARK   10  A    between atoms: _21  and  _22
REMARK   11  A    between atoms: _21  and  _24
REMARK   12  A    between atoms: _24  and  _25
REMARK   13  A    between atoms: _31  and  _33
REMARK   14  A    between atoms: _33  and  _34
REMARK   15  A    between atoms: _33  and  _36
REMARK   16  A    between atoms: _36  and  _37
REMARK   17  A    between atoms: _48  and  _49
REMARK   18  A    between atoms: _54  and  _56
REMARK   19  A    between atoms: _56  and  _57
REMARK   20  A    between atoms: _56  and  _59
REMARK   21  A    between atoms: _59  and  _60
REMARK   22  A    between atoms: _62  and  _64
REMARK   23  A    between atoms: _64  and  _65
REMARK   24  A    between atoms: _64  and  _67
REMARK   25  A    between atoms: _67  and  _68
REMARK   26  A    between atoms: _68  and  _69
REMARK   27  A    between atoms: _71  and  _73
REMARK   28  A    between atoms: _73  and  _74
REMARK   29  A    between atoms: _73  and  _76
REMARK   30  A    between atoms: _76  and  _77
REMARK   31  A    between atoms: _77  and  _78
REMARK   32  A    between atoms: _78  and  _79
REMARK   33  A    between atoms: _88  and  _90
REMARK   34  A    between atoms: _90  and  _91
REMARK   35  A    between atoms: _90  and  _93
REMARK   36  A    between atoms: _93  and  _94
REMARK   37  A    between atoms: _97  and  _99
REMARK   38  A    between atoms: _99  and  _100
REMARK   39  A    between atoms: _99  and  _102
REMARK   40  A    between atoms: _102  and  _103
REMARK   41  A    between atoms: _108  and  _109
REMARK   42  A    between atoms: _111  and  _113
REMARK   43  A    between atoms: _113  and  _114
REMARK   44  A    between atoms: _113  and  _116
REMARK   45  A    between atoms: _116  and  _117
REMARK   46  A    between atoms: _117  and  _118
REMARK   47  A    between atoms: _121  and  _123
REMARK   48  A    between atoms: _123  and  _124
REMARK   49  A    between atoms: _123  and  _126
REMARK   50  A    between atoms: _126  and  _127
REMARK   51  A    between atoms: _132  and  _133
REMARK   52  A    between atoms: _135  and  _137
REMARK   53  A    between atoms: _137  and  _138
REMARK   54  A    between atoms: _137  and  _140
REMARK   55  A    between atoms: _140  and  _141
REMARK   56  A    between atoms: _141  and  _142
REMARK   57  A    between atoms: _142  and  _143
REMARK   58  A    between atoms: _143  and  _144
REMARK   59  A    between atoms: _148  and  _150
REMARK   60  A    between atoms: _150  and  _151
REMARK   61  A    between atoms: _150  and  _153
REMARK   62  A    between atoms: _153  and  _154
REMARK   63  A    between atoms: _154  and  _155
REMARK   64  A    between atoms: _158  and  _160
REMARK   65  A    between atoms: _160  and  _161
REMARK   66  A    between atoms: _160  and  _163
REMARK   67  A    between atoms: _163  and  _164
REMARK   68  A    between atoms: _167  and  _169
REMARK   69  A    between atoms: _169  and  _170
REMARK   70  A    between atoms: _169  and  _172
REMARK   71  A    between atoms: _172  and  _173
REMARK   72  A    between atoms: _175  and  _177
REMARK   73  A    between atoms: _177  and  _178
REMARK   74  A    between atoms: _177  and  _180
REMARK   75  A    between atoms: _183  and  _185
REMARK   76  A    between atoms: _185  and  _186
REMARK   77  A    between atoms: _189  and  _191
REMARK   78  A    between atoms: _191  and  _192
REMARK   79  A    between atoms: _191  and  _194
REMARK   80  A    between atoms: _194  and  _195
REMARK   81  A    between atoms: _195  and  _196
REMARK   82  A    between atoms: _196  and  _197
REMARK   83  A    between atoms: _197  and  _198
REMARK   84  A    between atoms: _202  and  _204
REMARK   85  A    between atoms: _204  and  _205
REMARK   86  A    between atoms: _204  and  _207
REMARK   87  A    between atoms: _207  and  _208
REMARK   88  A    between atoms: _210  and  _212
REMARK   89  A    between atoms: _212  and  _213
REMARK   90  A    between atoms: _212  and  _215
REMARK   91  A    between atoms: _215  and  _216
REMARK   92  A    between atoms: _220  and  _221
REMARK   93  A    between atoms: _226  and  _228
REMARK   94  A    between atoms: _228  and  _229
REMARK   95  A    between atoms: _228  and  _231
REMARK   96  A    between atoms: _231  and  _232
REMARK   97  A    between atoms: _235  and  _237
REMARK   98  A    between atoms: _237  and  _238
REMARK   99  A    between atoms: _237  and  _240
REMARK  100  A    between atoms: _240  and  _241
REMARK  101  A    between atoms: _241  and  _242
REMARK  102  A    between atoms: _242  and  _243
REMARK  103  A    between atoms: _243  and  _244
REMARK  104  A    between atoms: _248  and  _250
REMARK  105  A    between atoms: _250  and  _251
REMARK  106  A    between atoms: _250  and  _253
REMARK                            x       y       z     vdW  Elec       q    Type
REMARK                         _______ _______ _______ _____ _____    ______ ____
ROOT
ATOM      1  C   LYS A   4      27.751 -47.722 -11.155  0.00  0.00    +0.241 C 
ATOM      2  O   LYS A   4      28.842 -47.846 -10.591  0.00  0.00    -0.273 OA
ATOM      3  N   SER A   5      26.998 -46.617 -11.079  0.00  0.00    -0.295 N 
ATOM      4  H   SER A   5      26.047 -46.623 -11.499  0.00  0.00    +0.150 HD
ENDROOT
BRANCH   3   5
ATOM      5  CA  SER A   5      27.480 -45.392 -10.416  0.00  0.00    +0.178 C 
BRANCH   5   6
ATOM      6  C   SER A   5      27.129 -45.323  -8.955  0.00  0.00    +0.243 C 
ATOM      7  O   SER A   5      27.796 -44.596  -8.212  0.00  0.00    -0.273 OA
ATOM      8  N   LEU A   6      26.088 -46.061  -8.540  0.00  0.00    -0.297 N 
ATOM      9  H   LEU A   6      25.624 -46.700  -9.216  0.00  0.00    +0.150 HD
BRANCH   8  10
ATOM     10  CA  LEU A   6      25.577 -45.996  -7.150  0.00  0.00    +0.149 C 
BRANCH  10  11
ATOM     11  C   LEU A   6      25.918 -47.220  -6.313  0.00  0.00    +0.244 C 
ATOM     12  N   PRO A   7      26.404 -47.004  -5.083  0.00  0.00    -0.272 N 
ATOM     13  CA  PRO A   7      26.525 -48.128  -4.150  0.00  0.00    +0.152 C 
ATOM     14  CB  PRO A   7      27.430 -47.559  -3.062  0.00  0.00    +0.031 C 
ATOM     15  CG  PRO A   7      27.001 -46.064  -3.021  0.00  0.00    +0.024 C 
ATOM     16  CD  PRO A   7      26.873 -45.740  -4.489  0.00  0.00    +0.094 C 
ATOM     17  O   LEU A   6      25.752 -48.348  -6.777  0.00  0.00    -0.273 OA
BRANCH  13  18
ATOM     18  C   PRO A   7      25.165 -48.519  -3.572  0.00  0.00    +0.241 C 
ATOM     19  N   ASP A   8      25.084 -49.733  -3.034  0.00  0.00    -0.298 N 
ATOM     20  H   ASP A   8      25.916 -50.358  -3.025  0.00  0.00    +0.150 HD
ATOM     21  O   PRO A   7      24.203 -47.720  -3.582  0.00  0.00    -0.273 OA
BRANCH  19  22
ATOM     22  CA  ASP A   8      23.819 -50.184  -2.456  0.00  0.00    +0.148 C 
BRANCH  22  23
ATOM     23  C   ASP A   8      23.585 -49.525  -1.090  0.00  0.00    +0.227 C 
ATOM     24  O   ASP A   8      24.550 -49.068  -0.450  0.00  0.00    -0.286 OA
ENDBRANCH  22  23
BRANCH  22  25
ATOM     25  CB  ASP A   8      23.696 -51.735  -2.459  0.00  0.00    +0.142 C 
BRANCH  25  26
ATOM     26  CG  ASP A   8      24.618 -52.421  -1.502  0.00  0.00    +0.367 C 
ATOM     27  OD2 ASP A   8      24.788 -51.969  -0.341  0.00  0.00    -0.246 OA
ATOM     28  OD1 ASP A   8      25.161 -53.484  -1.904  0.00  0.00    -0.246 OA
ENDBRANCH  25  26
ENDBRANCH  22  25
ENDBRANCH  19  22
ENDBRANCH  13  18
ENDBRANCH  10  11
BRANCH  10  29
ATOM     29  CB  LEU A   6      24.038 -45.847  -7.109  0.00  0.00    +0.029 C 
BRANCH  29  30
ATOM     30  CG  LEU A   6      23.304 -44.743  -7.872  0.00  0.00    +0.002 C 
ATOM     31  CD2 LEU A   6      21.896 -44.550  -7.315  0.00  0.00    +0.000 C 
ATOM     32  CD1 LEU A   6      24.047 -43.446  -7.975  0.00  0.00    +0.000 C 
ENDBRANCH  29  30
ENDBRANCH  10  29
ENDBRANCH   8  10
ENDBRANCH   5   6
BRANCH   5  33
ATOM     33  CB  SER A   5      26.917 -44.156 -11.100  0.00  0.00    +0.166 C 
BRANCH  33  34
ATOM     34  OG  SER A   5      27.357 -44.061 -12.450  0.00  0.00    -0.380 OA
ATOM     35  H   SER A   5      27.057 -44.861 -12.951  0.00  0.00    +0.211 HD
ENDBRANCH  33  34
ENDBRANCH   5  33
ENDBRANCH   3   5
BRANCH   1  36
ATOM     36  CA  LYS A   4      27.189 -48.881 -11.986  0.00  0.00    +0.149 C 
BRANCH  36  39
ATOM     37  C   ALA A   3      24.933 -49.074 -11.268  0.00  0.00    +0.241 C 
ATOM     38  O   ALA A   3      25.342 -49.426 -10.167  0.00  0.00    -0.273 OA
ATOM     39  N   LYS A   4      25.764 -48.749 -12.241  0.00  0.00    -0.297 N 
ATOM     40  H   LYS A   4      25.411 -48.410 -13.159  0.00  0.00    +0.150 HD
BRANCH  37  41
ATOM     41  CA  ALA A   3      23.422 -48.994 -11.527  0.00  0.00    +0.149 C 
ATOM     42  CB  ALA A   3      22.897 -50.239 -12.278  0.00  0.00    +0.031 C 
BRANCH  41  45
ATOM     43  C   VAL A   2      23.404 -46.579 -11.818  0.00  0.00    +0.241 C 
ATOM     44  O   VAL A   2      24.057 -46.397 -10.791  0.00  0.00    -0.273 OA
ATOM     45  N   ALA A   3      23.068 -47.792 -12.249  0.00  0.00    -0.297 N 
ATOM     46  H   ALA A   3      22.532 -47.879 -13.136  0.00  0.00    +0.150 HD
BRANCH  43  47
ATOM     47  CA  VAL A   2      22.888 -45.395 -12.662  0.00  0.00    +0.148 C 
BRANCH  47  50
ATOM     48  C   SER A   1      24.370 -45.194 -14.596  0.00  0.00    +0.241 C 
ATOM     49  O   SER A   1      25.227 -44.582 -13.956  0.00  0.00    -0.274 OA
ATOM     50  N   VAL A   2      23.223 -45.612 -14.074  0.00  0.00    -0.297 N 
ATOM     51  H   VAL A   2      22.542 -46.108 -14.684  0.00  0.00    +0.150 HD
BRANCH  48  52
ATOM     52  CA  SER A   1      24.587 -45.505 -16.078  0.00  0.00    +0.174 C 
BRANCH  52  53
ATOM     53  N   SER A   1      23.864 -46.717 -16.510  0.00  0.00    -0.236 NA
ATOM     54  H   SER A   1      23.139 -46.638 -17.252  0.00  0.00    +0.142 HD
ENDBRANCH  52  53
BRANCH  52  55
ATOM     55  CB  SER A   1      24.161 -44.277 -16.900  0.00  0.00    +0.163 C 
BRANCH  55  56
ATOM     56  OG  SER A   1      22.773 -44.046 -16.684  0.00  0.00    -0.380 OA
ATOM     57  H   SER A   1      22.485 -43.257 -17.208  0.00  0.00    +0.211 HD
ENDBRANCH  55  56
ENDBRANCH  52  55
ENDBRANCH  48  52
ENDBRANCH  47  50
BRANCH  47  58
ATOM     58  CB  VAL A   2      21.372 -45.174 -12.451  0.00  0.00    +0.027 C 
ATOM     59  CG2 VAL A   2      21.028 -45.164 -10.942  0.00  0.00    +0.002 C 
ATOM     60  CG1 VAL A   2      20.888 -43.878 -13.131  0.00  0.00    +0.002 C 
ENDBRANCH  47  58
ENDBRANCH  43  47
ENDBRANCH  41  45
ENDBRANCH  37  41
ENDBRANCH  36  39
BRANCH  36  61
ATOM     61  CB  LYS A   4      27.931 -49.064 -13.301  0.00  0.00    +0.029 C 
BRANCH  61  62
ATOM     62  CG  LYS A   4      27.656 -50.430 -13.915  0.00  0.00    +0.000 C 
BRANCH  62  63
ATOM     63  CD  LYS A   4      27.952 -50.409 -15.384  0.00  0.00    -0.024 C 
BRANCH  63  64
ATOM     64  CE  LYS A   4      27.743 -51.791 -15.980  0.00  0.00    -0.086 C 
BRANCH  64  65
ATOM     65  NZ  LYS A   4      28.343 -51.840 -17.322  0.00  0.00    +0.380 N 
ATOM     66  HZ1 LYS A   4      29.362 -51.641 -17.253  0.00  0.00    -0.089 HD
ATOM     67  HZ2 LYS A   4      28.200 -52.786 -17.730  0.00  0.00    -0.089 HD
ATOM     68  HZ3 LYS A   4      27.890 -51.127 -17.929  0.00  0.00    -0.089 HD
ENDBRANCH  64  65
ENDBRANCH  63  64
ENDBRANCH  62  63
ENDBRANCH  61  62
ENDBRANCH  36  61
ENDBRANCH   1  36
TORSDOF 29
REMARK  Name = ../refined-set-2016/2vo4/2vo4_pocket.pdb
REMARK  106 active torsions:
REMARK  status: ('A' for Active; 'I' for Inactive)
REMARK    1  A    between atoms: _1  and  _3
REMARK    2  A    between atoms: _3  and  _4
REMARK    3  A    between atoms: _3  and  _6
REMARK    4  A    between atoms: _6  and  _7
REMARK    5  A    between atoms: _10  and  _12
REMARK    6  A    between atoms: _12  and  _13
REMARK    7  A    between atoms: _12  and  _15
REMARK    8  A    between atoms: _15  and  _16
REMARK    9  A    between atoms: _19  and  _21
REMARK   10  A    between atoms: _21  and  _22
REMARK   11  A    between atoms: _21  and  _24
REMARK   12  A    between atoms: _24  and  _25
REMARK   13  A    between atoms: _31  and  _33
REMARK   14  A    between atoms: _33  and  _34
REMARK   15  A    between atoms: _33  and  _36
REMARK   16  A    between atoms: _36  and  _37
REMARK   17  A    between atoms: _48  and  _49
REMARK   18  A    between atoms: _54  and  _56
REMARK   19  A    between atoms: _56  and  _57
REMARK   20  A    between atoms: _56  and  _59
REMARK   21  A    between atoms: _59  and  _60
REMARK   22  A    between atoms: _62  and  _64
REMARK   23  A    between atoms: _64  and  _65
REMARK   24  A    between atoms: _64  and  _67
REMARK   25  A    between atoms: _67  and  _68
REMARK   26  A    between atoms: _68  and  _69
REMARK   27  A    between atoms: _71  and  _73
REMARK   28  A    between atoms: _73  and  _74
REMARK   29  A    between atoms: _73  and  _76
REMARK   30  A    between atoms: _76  and  _77
REMARK   31  A    between atoms: _77  and  _78
REMARK   32  A    between atoms: _78  and  _79
REMARK   33  A    between atoms: _88  and  _90
REMARK   34  A    between atoms: _90  and  _91
REMARK   35  A    between atoms: _90  and  _93
REMARK   36  A    between atoms: _93  and  _94
REMARK   37  A    between atoms: _97  and  _99
REMARK   38  A    between atoms: _99  and  _100
REMARK   39  A    between atoms: _99  and  _102
REMARK   40  A    between atoms: _102  and  _103
REMARK   41  A    between atoms: _108  and  _109
REMARK   42  A    between atoms: _111  and  _113
REMARK   43  A    between atoms: _113  and  _114
REMARK   44  A    between atoms: _113  and  _116
REMARK   45  A    between atoms: _116  and  _117
REMARK   46  A    between atoms: _117  and  _118
REMARK   47  A    between atoms: _121  and  _123
REMARK   48  A    between atoms: _123  and  _124
REMARK   49  A    between atoms: _123  and  _126
REMARK   50  A    between atoms: _126  and  _127
REMARK   51  A    between atoms: _132  and  _133
REMARK   52  A    between atoms: _135  and  _137
REMARK   53  A    between atoms: _137  and  _138
REMARK   54  A    between atoms: _137  and  _140
REMARK   55  A    between atoms: _140  and  _141
REMARK   56  A    between atoms: _141  and  _142
REMARK   57  A    between atoms: _142  and  _143
REMARK   58  A    between atoms: _143  and  _144
REMARK   59  A    between atoms: _148  and  _150
REMARK   60  A    between atoms: _150  and  _151
REMARK   61  A    between atoms: _150  and  _153
REMARK   62  A    between atoms: _153  and  _154
REMARK   63  A    between atoms: _154  and  _155
REMARK   64  A    between atoms: _158  and  _160
REMARK   65  A    between atoms: _160  and  _161
REMARK   66  A    between atoms: _160  and  _163
REMARK   67  A    between atoms: _163  and  _164
REMARK   68  A    between atoms: _167  and  _169
REMARK   69  A    between atoms: _169  and  _170
REMARK   70  A    between atoms: _169  and  _172
REMARK   71  A    between atoms: _172  and  _173
REMARK   72  A    between atoms: _175  and  _177
REMARK   73  A    between atoms: _177  and  _178
REMARK   74  A    between atoms: _177  and  _180
REMARK   75  A    between atoms: _183  and  _185
REMARK   76  A    between atoms: _185  and  _186
REMARK   77  A    between atoms: _189  and  _191
REMARK   78  A    between atoms: _191  and  _192
REMARK   79  A    between atoms: _191  and  _194
REMARK   80  A    between atoms: _194  and  _195
REMARK   81  A    between atoms: _195  and  _196
REMARK   82  A    between atoms: _196  and  _197
REMARK   83  A    between atoms: _197  and  _198
REMARK   84  A    between atoms: _202  and  _204
REMARK   85  A    between atoms: _204  and  _205
REMARK   86  A    between atoms: _204  and  _207
REMARK   87  A    between atoms: _207  and  _208
REMARK   88  A    between atoms: _210  and  _212
REMARK   89  A    between atoms: _212  and  _213
REMARK   90  A    between atoms: _212  and  _215
REMARK   91  A    between atoms: _215  and  _216
REMARK   92  A    between atoms: _220  and  _221
REMARK   93  A    between atoms: _226  and  _228
REMARK   94  A    between atoms: _228  and  _229
REMARK   95  A    between atoms: _228  and  _231
REMARK   96  A    between atoms: _231  and  _232
REMARK   97  A    between atoms: _235  and  _237
REMARK   98  A    between atoms: _237  and  _238
REMARK   99  A    between atoms: _237  and  _240
REMARK  100  A    between atoms: _240  and  _241
REMARK  101  A    between atoms: _241  and  _242
REMARK  102  A    between atoms: _242  and  _243
REMARK  103  A    between atoms: _243  and  _244
REMARK  104  A    between atoms: _248  and  _250
REMARK  105  A    between atoms: _250  and  _251
REMARK  106  A    between atoms: _250  and  _253
REMARK                            x       y       z     vdW  Elec       q    Type
REMARK                         _______ _______ _______ _____ _____    ______ ____
ROOT
ATOM      1  CA  LYS A   1      27.039 -50.324   2.156  0.00  0.00    +0.145 C 
ENDROOT
BRANCH   1   2
ATOM      2  C   LYS A   1      27.146 -48.893   2.683  0.00  0.00    +0.238 C 
ATOM      3  O   LYS A   1      27.999 -48.575   3.547  0.00  0.00    -0.274 OA
ATOM      4  N   VAL A   2      26.280 -48.027   2.169  0.00  0.00    -0.298 N 
ATOM      5  H   VAL A   2      25.605 -48.345   1.444  0.00  0.00    +0.150 HD
BRANCH   4   6
ATOM      6  CA  VAL A   2      26.263 -46.633   2.609  0.00  0.00    +0.137 C 
BRANCH   6   7
ATOM      7  CB  VAL A   2      25.300 -45.821   1.766  0.00  0.00    +0.026 C 
ATOM      8  CG2 VAL A   2      25.154 -44.383   2.330  0.00  0.00    +0.002 C 
ATOM      9  CG1 VAL A   2      25.781 -45.829   0.294  0.00  0.00    +0.002 C 
ENDBRANCH   6   7
BRANCH   6  10
ATOM     10  C   VAL A   2      25.854 -46.512   4.078  0.00  0.00    +0.227 C 
ATOM     11  O   VAL A   2      26.459 -45.748   4.854  0.00  0.00    -0.286 OA
ENDBRANCH   6  10
ENDBRANCH   4   6
ENDBRANCH   1   2
BRANCH   1  12
ATOM     12  N   LYS A   1      25.640 -50.697   2.039  0.00  0.00    -0.238 NA
ATOM     13  H   LYS A   1      25.214 -50.822   1.099  0.00  0.00    +0.142 HD
ENDBRANCH   1  12
BRANCH   1  14
ATOM     14  CB  LYS A   1      27.749 -50.526   0.822  0.00  0.00    +0.026 C 
BRANCH  14  15
ATOM     15  CG  LYS A   1      28.008 -52.003   0.525  0.00  0.00    -0.000 C 
BRANCH  15  16
ATOM     16  CD  LYS A   1      28.360 -52.208  -0.952  0.00  0.00    -0.024 C 
BRANCH  16  17
ATOM     17  CE  LYS A   1      28.410 -53.687  -1.308  0.00  0.00    -0.086 C 
BRANCH  17  18
ATOM     18  NZ  LYS A   1      28.504 -53.917  -2.776  0.00  0.00    +0.380 N 
ATOM     19  HZ1 LYS A   1      28.535 -54.939  -2.964  0.00  0.00    -0.089 HD
ATOM     20  HZ2 LYS A   1      29.369 -53.470  -3.141  0.00  0.00    -0.089 HD
ATOM     21  HZ3 LYS A   1      27.673 -53.502  -3.245  0.00  0.00    -0.089 HD
ENDBRANCH  17  18
ENDBRANCH  16  17
ENDBRANCH  15  16
ENDBRANCH  14  15
ENDBRANCH   1  14
TORSDOF 10
REMARK  Name = ../refined-set-2016/2vo4/2vo4_pocket.pdb
REMARK  106 active torsions:
REMARK  status: ('A' for Active; 'I' for Inactive)
REMARK    1  A    between atoms: _1  and  _3
REMARK    2  A    between atoms: _3  and  _4
REMARK    3  A    between atoms: _3  and  _6
REMARK    4  A    between atoms: _6  and  _7
REMARK    5  A    between atoms: _10  and  _12
REMARK    6  A    between atoms: _12  and  _13
REMARK    7  A    between atoms: _12  and  _15
REMARK    8  A    between atoms: _15  and  _16
REMARK    9  A    between atoms: _19  and  _21
REMARK   10  A    between atoms: _21  and  _22
REMARK   11  A    between atoms: _21  and  _24
REMARK   12  A    between atoms: _24  and  _25
REMARK   13  A    between atoms: _31  and  _33
REMARK   14  A    between atoms: _33  and  _34
REMARK   15  A    between atoms: _33  and  _36
REMARK   16  A    between atoms: _36  and  _37
REMARK   17  A    between atoms: _48  and  _49
REMARK   18  A    between atoms: _54  and  _56
REMARK   19  A    between atoms: _56  and  _57
REMARK   20  A    between atoms: _56  and  _59
REMARK   21  A    between atoms: _59  and  _60
REMARK   22  A    between atoms: _62  and  _64
REMARK   23  A    between atoms: _64  and  _65
REMARK   24  A    between atoms: _64  and  _67
REMARK   25  A    between atoms: _67  and  _68
REMARK   26  A    between atoms: _68  and  _69
REMARK   27  A    between atoms: _71  and  _73
REMARK   28  A    between atoms: _73  and  _74
REMARK   29  A    between atoms: _73  and  _76
REMARK   30  A    between atoms: _76  and  _77
REMARK   31  A    between atoms: _77  and  _78
REMARK   32  A    between atoms: _78  and  _79
REMARK   33  A    between atoms: _88  and  _90
REMARK   34  A    between atoms: _90  and  _91
REMARK   35  A    between atoms: _90  and  _93
REMARK   36  A    between atoms: _93  and  _94
REMARK   37  A    between atoms: _97  and  _99
REMARK   38  A    between atoms: _99  and  _100
REMARK   39  A    between atoms: _99  and  _102
REMARK   40  A    between atoms: _102  and  _103
REMARK   41  A    between atoms: _108  and  _109
REMARK   42  A    between atoms: _111  and  _113
REMARK   43  A    between atoms: _113  and  _114
REMARK   44  A    between atoms: _113  and  _116
REMARK   45  A    between atoms: _116  and  _117
REMARK   46  A    between atoms: _117  and  _118
REMARK   47  A    between atoms: _121  and  _123
REMARK   48  A    between atoms: _123  and  _124
REMARK   49  A    between atoms: _123  and  _126
REMARK   50  A    between atoms: _126  and  _127
REMARK   51  A    between atoms: _132  and  _133
REMARK   52  A    between atoms: _135  and  _137
REMARK   53  A    between atoms: _137  and  _138
REMARK   54  A    between atoms: _137  and  _140
REMARK   55  A    between atoms: _140  and  _141
REMARK   56  A    between atoms: _141  and  _142
REMARK   57  A    between atoms: _142  and  _143
REMARK   58  A    between atoms: _143  and  _144
REMARK   59  A    between atoms: _148  and  _150
REMARK   60  A    between atoms: _150  and  _151
REMARK   61  A    between atoms: _150  and  _153
REMARK   62  A    between atoms: _153  and  _154
REMARK   63  A    between atoms: _154  and  _155
REMARK   64  A    between atoms: _158  and  _160
REMARK   65  A    between atoms: _160  and  _161
REMARK   66  A    between atoms: _160  and  _163
REMARK   67  A    between atoms: _163  and  _164
REMARK   68  A    between atoms: _167  and  _169
REMARK   69  A    between atoms: _169  and  _170
REMARK   70  A    between atoms: _169  and  _172
REMARK   71  A    between atoms: _172  and  _173
REMARK   72  A    between atoms: _175  and  _177
REMARK   73  A    between atoms: _177  and  _178
REMARK   74  A    between atoms: _177  and  _180
REMARK   75  A    between atoms: _183  and  _185
REMARK   76  A    between atoms: _185  and  _186
REMARK   77  A    between atoms: _189  and  _191
REMARK   78  A    between atoms: _191  and  _192
REMARK   79  A    between atoms: _191  and  _194
REMARK   80  A    between atoms: _194  and  _195
REMARK   81  A    between atoms: _195  and  _196
REMARK   82  A    between atoms: _196  and  _197
REMARK   83  A    between atoms: _197  and  _198
REMARK   84  A    between atoms: _202  and  _204
REMARK   85  A    between atoms: _204  and  _205
REMARK   86  A    between atoms: _204  and  _207
REMARK   87  A    between atoms: _207  and  _208
REMARK   88  A    between atoms: _210  and  _212
REMARK   89  A    between atoms: _212  and  _213
REMARK   90  A    between atoms: _212  and  _215
REMARK   91  A    between atoms: _215  and  _216
REMARK   92  A    between atoms: _220  and  _221
REMARK   93  A    between atoms: _226  and  _228
REMARK   94  A    between atoms: _228  and  _229
REMARK   95  A    between atoms: _228  and  _231
REMARK   96  A    between atoms: _231  and  _232
REMARK   97  A    between atoms: _235  and  _237
REMARK   98  A    between atoms: _237  and  _238
REMARK   99  A    between atoms: _237  and  _240
REMARK  100  A    between atoms: _240  and  _241
REMARK  101  A    between atoms: _241  and  _242
REMARK  102  A    between atoms: _242  and  _243
REMARK  103  A    between atoms: _243  and  _244
REMARK  104  A    between atoms: _248  and  _250
REMARK  105  A    between atoms: _250  and  _251
REMARK  106  A    between atoms: _250  and  _253
REMARK                            x       y       z     vdW  Elec       q    Type
REMARK                         _______ _______ _______ _____ _____    ______ ____
ROOT
ATOM      1  O   HOH     1      34.559 -45.894 -13.931  0.00  0.00    +0.000 OA
ENDROOT
TORSDOF 0
REMARK  Name = ../refined-set-2016/2vo4/2vo4_pocket.pdb
REMARK  106 active torsions:
REMARK  status: ('A' for Active; 'I' for Inactive)
REMARK    1  A    between atoms: _1  and  _3
REMARK    2  A    between atoms: _3  and  _4
REMARK    3  A    between atoms: _3  and  _6
REMARK    4  A    between atoms: _6  and  _7
REMARK    5  A    between atoms: _10  and  _12
REMARK    6  A    between atoms: _12  and  _13
REMARK    7  A    between atoms: _12  and  _15
REMARK    8  A    between atoms: _15  and  _16
REMARK    9  A    between atoms: _19  and  _21
REMARK   10  A    between atoms: _21  and  _22
REMARK   11  A    between atoms: _21  and  _24
REMARK   12  A    between atoms: _24  and  _25
REMARK   13  A    between atoms: _31  and  _33
REMARK   14  A    between atoms: _33  and  _34
REMARK   15  A    between atoms: _33  and  _36
REMARK   16  A    between atoms: _36  and  _37
REMARK   17  A    between atoms: _48  and  _49
REMARK   18  A    between atoms: _54  and  _56
REMARK   19  A    between atoms: _56  and  _57
REMARK   20  A    between atoms: _56  and  _59
REMARK   21  A    between atoms: _59  and  _60
REMARK   22  A    between atoms: _62  and  _64
REMARK   23  A    between atoms: _64  and  _65
REMARK   24  A    between atoms: _64  and  _67
REMARK   25  A    between atoms: _67  and  _68
REMARK   26  A    between atoms: _68  and  _69
REMARK   27  A    between atoms: _71  and  _73
REMARK   28  A    between atoms: _73  and  _74
REMARK   29  A    between atoms: _73  and  _76
REMARK   30  A    between atoms: _76  and  _77
REMARK   31  A    between atoms: _77  and  _78
REMARK   32  A    between atoms: _78  and  _79
REMARK   33  A    between atoms: _88  and  _90
REMARK   34  A    between atoms: _90  and  _91
REMARK   35  A    between atoms: _90  and  _93
REMARK   36  A    between atoms: _93  and  _94
REMARK   37  A    between atoms: _97  and  _99
REMARK   38  A    between atoms: _99  and  _100
REMARK   39  A    between atoms: _99  and  _102
REMARK   40  A    between atoms: _102  and  _103
REMARK   41  A    between atoms: _108  and  _109
REMARK   42  A    between atoms: _111  and  _113
REMARK   43  A    between atoms: _113  and  _114
REMARK   44  A    between atoms: _113  and  _116
REMARK   45  A    between atoms: _116  and  _117
REMARK   46  A    between atoms: _117  and  _118
REMARK   47  A    between atoms: _121  and  _123
REMARK   48  A    between atoms: _123  and  _124
REMARK   49  A    between atoms: _123  and  _126
REMARK   50  A    between atoms: _126  and  _127
REMARK   51  A    between atoms: _132  and  _133
REMARK   52  A    between atoms: _135  and  _137
REMARK   53  A    between atoms: _137  and  _138
REMARK   54  A    between atoms: _137  and  _140
REMARK   55  A    between atoms: _140  and  _141
REMARK   56  A    between atoms: _141  and  _142
REMARK   57  A    between atoms: _142  and  _143
REMARK   58  A    between atoms: _143  and  _144
REMARK   59  A    between atoms: _148  and  _150
REMARK   60  A    between atoms: _150  and  _151
REMARK   61  A    between atoms: _150  and  _153
REMARK   62  A    between atoms: _153  and  _154
REMARK   63  A    between atoms: _154  and  _155
REMARK   64  A    between atoms: _158  and  _160
REMARK   65  A    between atoms: _160  and  _161
REMARK   66  A    between atoms: _160  and  _163
REMARK   67  A    between atoms: _163  and  _164
REMARK   68  A    between atoms: _167  and  _169
REMARK   69  A    between atoms: _169  and  _170
REMARK   70  A    between atoms: _169  and  _172
REMARK   71  A    between atoms: _172  and  _173
REMARK   72  A    between atoms: _175  and  _177
REMARK   73  A    between atoms: _177  and  _178
REMARK   74  A    between atoms: _177  and  _180
REMARK   75  A    between atoms: _183  and  _185
REMARK   76  A    between atoms: _185  and  _186
REMARK   77  A    between atoms: _189  and  _191
REMARK   78  A    between atoms: _191  and  _192
REMARK   79  A    between atoms: _191  and  _194
REMARK   80  A    between atoms: _194  and  _195
REMARK   81  A    between atoms: _195  and  _196
REMARK   82  A    between atoms: _196  and  _197
REMARK   83  A    between atoms: _197  and  _198
REMARK   84  A    between atoms: _202  and  _204
REMARK   85  A    between atoms: _204  and  _205
REMARK   86  A    between atoms: _204  and  _207
REMARK   87  A    between atoms: _207  and  _208
REMARK   88  A    between atoms: _210  and  _212
REMARK   89  A    between atoms: _212  and  _213
REMARK   90  A    between atoms: _212  and  _215
REMARK   91  A    between atoms: _215  and  _216
REMARK   92  A    between atoms: _220  and  _221
REMARK   93  A    between atoms: _226  and  _228
REMARK   94  A    between atoms: _228  and  _229
REMARK   95  A    between atoms: _228  and  _231
REMARK   96  A    between atoms: _231  and  _232
REMARK   97  A    between atoms: _235  and  _237
REMARK   98  A    between atoms: _237  and  _238
REMARK   99  A    between atoms: _237  and  _240
REMARK  100  A    between atoms: _240  and  _241
REMARK  101  A    between atoms: _241  and  _242
REMARK  102  A    between atoms: _242  and  _243
REMARK  103  A    between atoms: _243  and  _244
REMARK  104  A    between atoms: _248  and  _250
REMARK  105  A    between atoms: _250  and  _251
REMARK  106  A    between atoms: _250  and  _253
REMARK                            x       y       z     vdW  Elec       q    Type
REMARK                         _______ _______ _______ _____ _____    ______ ____
ROOT
ATOM      1  O   HOH     1      36.810 -48.380 -17.372  0.00  0.00    +0.000 OA
ENDROOT
TORSDOF 0
REMARK  Name = ../refined-set-2016/2vo4/2vo4_pocket.pdb
REMARK  106 active torsions:
REMARK  status: ('A' for Active; 'I' for Inactive)
REMARK    1  A    between atoms: _1  and  _3
REMARK    2  A    between atoms: _3  and  _4
REMARK    3  A    between atoms: _3  and  _6
REMARK    4  A    between atoms: _6  and  _7
REMARK    5  A    between atoms: _10  and  _12
REMARK    6  A    between atoms: _12  and  _13
REMARK    7  A    between atoms: _12  and  _15
REMARK    8  A    between atoms: _15  and  _16
REMARK    9  A    between atoms: _19  and  _21
REMARK   10  A    between atoms: _21  and  _22
REMARK   11  A    between atoms: _21  and  _24
REMARK   12  A    between atoms: _24  and  _25
REMARK   13  A    between atoms: _31  and  _33
REMARK   14  A    between atoms: _33  and  _34
REMARK   15  A    between atoms: _33  and  _36
REMARK   16  A    between atoms: _36  and  _37
REMARK   17  A    between atoms: _48  and  _49
REMARK   18  A    between atoms: _54  and  _56
REMARK   19  A    between atoms: _56  and  _57
REMARK   20  A    between atoms: _56  and  _59
REMARK   21  A    between atoms: _59  and  _60
REMARK   22  A    between atoms: _62  and  _64
REMARK   23  A    between atoms: _64  and  _65
REMARK   24  A    between atoms: _64  and  _67
REMARK   25  A    between atoms: _67  and  _68
REMARK   26  A    between atoms: _68  and  _69
REMARK   27  A    between atoms: _71  and  _73
REMARK   28  A    between atoms: _73  and  _74
REMARK   29  A    between atoms: _73  and  _76
REMARK   30  A    between atoms: _76  and  _77
REMARK   31  A    between atoms: _77  and  _78
REMARK   32  A    between atoms: _78  and  _79
REMARK   33  A    between atoms: _88  and  _90
REMARK   34  A    between atoms: _90  and  _91
REMARK   35  A    between atoms: _90  and  _93
REMARK   36  A    between atoms: _93  and  _94
REMARK   37  A    between atoms: _97  and  _99
REMARK   38  A    between atoms: _99  and  _100
REMARK   39  A    between atoms: _99  and  _102
REMARK   40  A    between atoms: _102  and  _103
REMARK   41  A    between atoms: _108  and  _109
REMARK   42  A    between atoms: _111  and  _113
REMARK   43  A    between atoms: _113  and  _114
REMARK   44  A    between atoms: _113  and  _116
REMARK   45  A    between atoms: _116  and  _117
REMARK   46  A    between atoms: _117  and  _118
REMARK   47  A    between atoms: _121  and  _123
REMARK   48  A    between atoms: _123  and  _124
REMARK   49  A    between atoms: _123  and  _126
REMARK   50  A    between atoms: _126  and  _127
REMARK   51  A    between atoms: _132  and  _133
REMARK   52  A    between atoms: _135  and  _137
REMARK   53  A    between atoms: _137  and  _138
REMARK   54  A    between atoms: _137  and  _140
REMARK   55  A    between atoms: _140  and  _141
REMARK   56  A    between atoms: _141  and  _142
REMARK   57  A    between atoms: _142  and  _143
REMARK   58  A    between atoms: _143  and  _144
REMARK   59  A    between atoms: _148  and  _150
REMARK   60  A    between atoms: _150  and  _151
REMARK   61  A    between atoms: _150  and  _153
REMARK   62  A    between atoms: _153  and  _154
REMARK   63  A    between atoms: _154  and  _155
REMARK   64  A    between atoms: _158  and  _160
REMARK   65  A    between atoms: _160  and  _161
REMARK   66  A    between atoms: _160  and  _163
REMARK   67  A    between atoms: _163  and  _164
REMARK   68  A    between atoms: _167  and  _169
REMARK   69  A    between atoms: _169  and  _170
REMARK   70  A    between atoms: _169  and  _172
REMARK   71  A    between atoms: _172  and  _173
REMARK   72  A    between atoms: _175  and  _177
REMARK   73  A    between atoms: _177  and  _178
REMARK   74  A    between atoms: _177  and  _180
REMARK   75  A    between atoms: _183  and  _185
REMARK   76  A    between atoms: _185  and  _186
REMARK   77  A    between atoms: _189  and  _191
REMARK   78  A    between atoms: _191  and  _192
REMARK   79  A    between atoms: _191  and  _194
REMARK   80  A    between atoms: _194  and  _195
REMARK   81  A    between atoms: _195  and  _196
REMARK   82  A    between atoms: _196  and  _197
REMARK   83  A    between atoms: _197  and  _198
REMARK   84  A    between atoms: _202  and  _204
REMARK   85  A    between atoms: _204  and  _205
REMARK   86  A    between atoms: _204  and  _207
REMARK   87  A    between atoms: _207  and  _208
REMARK   88  A    between atoms: _210  and  _212
REMARK   89  A    between atoms: _212  and  _213
REMARK   90  A    between atoms: _212  and  _215
REMARK   91  A    between atoms: _215  and  _216
REMARK   92  A    between atoms: _220  and  _221
REMARK   93  A    between atoms: _226  and  _228
REMARK   94  A    between atoms: _228  and  _229
REMARK   95  A    between atoms: _228  and  _231
REMARK   96  A    between atoms: _231  and  _232
REMARK   97  A    between atoms: _235  and  _237
REMARK   98  A    between atoms: _237  and  _238
REMARK   99  A    between atoms: _237  and  _240
REMARK  100  A    between atoms: _240  and  _241
REMARK  101  A    between atoms: _241  and  _242
REMARK  102  A    between atoms: _242  and  _243
REMARK  103  A    between atoms: _243  and  _244
REMARK  104  A    between atoms: _248  and  _250
REMARK  105  A    between atoms: _250  and  _251
REMARK  106  A    between atoms: _250  and  _253
REMARK                            x       y       z     vdW  Elec       q    Type
REMARK                         _______ _______ _______ _____ _____    ______ ____
ROOT
ATOM      1  O   HOH     1      36.723 -45.595 -15.079  0.00  0.00    +0.000 OA
ENDROOT
TORSDOF 0
REMARK  Name = ../refined-set-2016/2vo4/2vo4_pocket.pdb
REMARK  106 active torsions:
REMARK  status: ('A' for Active; 'I' for Inactive)
REMARK    1  A    between atoms: _1  and  _3
REMARK    2  A    between atoms: _3  and  _4
REMARK    3  A    between atoms: _3  and  _6
REMARK    4  A    between atoms: _6  and  _7
REMARK    5  A    between atoms: _10  and  _12
REMARK    6  A    between atoms: _12  and  _13
REMARK    7  A    between atoms: _12  and  _15
REMARK    8  A    between atoms: _15  and  _16
REMARK    9  A    between atoms: _19  and  _21
REMARK   10  A    between atoms: _21  and  _22
REMARK   11  A    between atoms: _21  and  _24
REMARK   12  A    between atoms: _24  and  _25
REMARK   13  A    between atoms: _31  and  _33
REMARK   14  A    between atoms: _33  and  _34
REMARK   15  A    between atoms: _33  and  _36
REMARK   16  A    between atoms: _36  and  _37
REMARK   17  A    between atoms: _48  and  _49
REMARK   18  A    between atoms: _54  and  _56
REMARK   19  A    between atoms: _56  and  _57
REMARK   20  A    between atoms: _56  and  _59
REMARK   21  A    between atoms: _59  and  _60
REMARK   22  A    between atoms: _62  and  _64
REMARK   23  A    between atoms: _64  and  _65
REMARK   24  A    between atoms: _64  and  _67
REMARK   25  A    between atoms: _67  and  _68
REMARK   26  A    between atoms: _68  and  _69
REMARK   27  A    between atoms: _71  and  _73
REMARK   28  A    between atoms: _73  and  _74
REMARK   29  A    between atoms: _73  and  _76
REMARK   30  A    between atoms: _76  and  _77
REMARK   31  A    between atoms: _77  and  _78
REMARK   32  A    between atoms: _78  and  _79
REMARK   33  A    between atoms: _88  and  _90
REMARK   34  A    between atoms: _90  and  _91
REMARK   35  A    between atoms: _90  and  _93
REMARK   36  A    between atoms: _93  and  _94
REMARK   37  A    between atoms: _97  and  _99
REMARK   38  A    between atoms: _99  and  _100
REMARK   39  A    between atoms: _99  and  _102
REMARK   40  A    between atoms: _102  and  _103
REMARK   41  A    between atoms: _108  and  _109
REMARK   42  A    between atoms: _111  and  _113
REMARK   43  A    between atoms: _113  and  _114
REMARK   44  A    between atoms: _113  and  _116
REMARK   45  A    between atoms: _116  and  _117
REMARK   46  A    between atoms: _117  and  _118
REMARK   47  A    between atoms: _121  and  _123
REMARK   48  A    between atoms: _123  and  _124
REMARK   49  A    between atoms: _123  and  _126
REMARK   50  A    between atoms: _126  and  _127
REMARK   51  A    between atoms: _132  and  _133
REMARK   52  A    between atoms: _135  and  _137
REMARK   53  A    between atoms: _137  and  _138
REMARK   54  A    between atoms: _137  and  _140
REMARK   55  A    between atoms: _140  and  _141
REMARK   56  A    between atoms: _141  and  _142
REMARK   57  A    between atoms: _142  and  _143
REMARK   58  A    between atoms: _143  and  _144
REMARK   59  A    between atoms: _148  and  _150
REMARK   60  A    between atoms: _150  and  _151
REMARK   61  A    between atoms: _150  and  _153
REMARK   62  A    between atoms: _153  and  _154
REMARK   63  A    between atoms: _154  and  _155
REMARK   64  A    between atoms: _158  and  _160
REMARK   65  A    between atoms: _160  and  _161
REMARK   66  A    between atoms: _160  and  _163
REMARK   67  A    between atoms: _163  and  _164
REMARK   68  A    between atoms: _167  and  _169
REMARK   69  A    between atoms: _169  and  _170
REMARK   70  A    between atoms: _169  and  _172
REMARK   71  A    between atoms: _172  and  _173
REMARK   72  A    between atoms: _175  and  _177
REMARK   73  A    between atoms: _177  and  _178
REMARK   74  A    between atoms: _177  and  _180
REMARK   75  A    between atoms: _183  and  _185
REMARK   76  A    between atoms: _185  and  _186
REMARK   77  A    between atoms: _189  and  _191
REMARK   78  A    between atoms: _191  and  _192
REMARK   79  A    between atoms: _191  and  _194
REMARK   80  A    between atoms: _194  and  _195
REMARK   81  A    between atoms: _195  and  _196
REMARK   82  A    between atoms: _196  and  _197
REMARK   83  A    between atoms: _197  and  _198
REMARK   84  A    between atoms: _202  and  _204
REMARK   85  A    between atoms: _204  and  _205
REMARK   86  A    between atoms: _204  and  _207
REMARK   87  A    between atoms: _207  and  _208
REMARK   88  A    between atoms: _210  and  _212
REMARK   89  A    between atoms: _212  and  _213
REMARK   90  A    between atoms: _212  and  _215
REMARK   91  A    between atoms: _215  and  _216
REMARK   92  A    between atoms: _220  and  _221
REMARK   93  A    between atoms: _226  and  _228
REMARK   94  A    between atoms: _228  and  _229
REMARK   95  A    between atoms: _228  and  _231
REMARK   96  A    between atoms: _231  and  _232
REMARK   97  A    between atoms: _235  and  _237
REMARK   98  A    between atoms: _237  and  _238
REMARK   99  A    between atoms: _237  and  _240
REMARK  100  A    between atoms: _240  and  _241
REMARK  101  A    between atoms: _241  and  _242
REMARK  102  A    between atoms: _242  and  _243
REMARK  103  A    between atoms: _243  and  _244
REMARK  104  A    between atoms: _248  and  _250
REMARK  105  A    between atoms: _250  and  _251
REMARK  106  A    between atoms: _250  and  _253
REMARK                            x       y       z     vdW  Elec       q    Type
REMARK                         _______ _______ _______ _____ _____    ______ ____
ROOT
ATOM      1  O   HOH     1      30.340 -43.640 -14.248  0.00  0.00    +0.000 OA
ENDROOT
TORSDOF 0
REMARK  Name = ../refined-set-2016/2vo4/2vo4_pocket.pdb
REMARK  106 active torsions:
REMARK  status: ('A' for Active; 'I' for Inactive)
REMARK    1  A    between atoms: _1  and  _3
REMARK    2  A    between atoms: _3  and  _4
REMARK    3  A    between atoms: _3  and  _6
REMARK    4  A    between atoms: _6  and  _7
REMARK    5  A    between atoms: _10  and  _12
REMARK    6  A    between atoms: _12  and  _13
REMARK    7  A    between atoms: _12  and  _15
REMARK    8  A    between atoms: _15  and  _16
REMARK    9  A    between atoms: _19  and  _21
REMARK   10  A    between atoms: _21  and  _22
REMARK   11  A    between atoms: _21  and  _24
REMARK   12  A    between atoms: _24  and  _25
REMARK   13  A    between atoms: _31  and  _33
REMARK   14  A    between atoms: _33  and  _34
REMARK   15  A    between atoms: _33  and  _36
REMARK   16  A    between atoms: _36  and  _37
REMARK   17  A    between atoms: _48  and  _49
REMARK   18  A    between atoms: _54  and  _56
REMARK   19  A    between atoms: _56  and  _57
REMARK   20  A    between atoms: _56  and  _59
REMARK   21  A    between atoms: _59  and  _60
REMARK   22  A    between atoms: _62  and  _64
REMARK   23  A    between atoms: _64  and  _65
REMARK   24  A    between atoms: _64  and  _67
REMARK   25  A    between atoms: _67  and  _68
REMARK   26  A    between atoms: _68  and  _69
REMARK   27  A    between atoms: _71  and  _73
REMARK   28  A    between atoms: _73  and  _74
REMARK   29  A    between atoms: _73  and  _76
REMARK   30  A    between atoms: _76  and  _77
REMARK   31  A    between atoms: _77  and  _78
REMARK   32  A    between atoms: _78  and  _79
REMARK   33  A    between atoms: _88  and  _90
REMARK   34  A    between atoms: _90  and  _91
REMARK   35  A    between atoms: _90  and  _93
REMARK   36  A    between atoms: _93  and  _94
REMARK   37  A    between atoms: _97  and  _99
REMARK   38  A    between atoms: _99  and  _100
REMARK   39  A    between atoms: _99  and  _102
REMARK   40  A    between atoms: _102  and  _103
REMARK   41  A    between atoms: _108  and  _109
REMARK   42  A    between atoms: _111  and  _113
REMARK   43  A    between atoms: _113  and  _114
REMARK   44  A    between atoms: _113  and  _116
REMARK   45  A    between atoms: _116  and  _117
REMARK   46  A    between atoms: _117  and  _118
REMARK   47  A    between atoms: _121  and  _123
REMARK   48  A    between atoms: _123  and  _124
REMARK   49  A    between atoms: _123  and  _126
REMARK   50  A    between atoms: _126  and  _127
REMARK   51  A    between atoms: _132  and  _133
REMARK   52  A    between atoms: _135  and  _137
REMARK   53  A    between atoms: _137  and  _138
REMARK   54  A    between atoms: _137  and  _140
REMARK   55  A    between atoms: _140  and  _141
REMARK   56  A    between atoms: _141  and  _142
REMARK   57  A    between atoms: _142  and  _143
REMARK   58  A    between atoms: _143  and  _144
REMARK   59  A    between atoms: _148  and  _150
REMARK   60  A    between atoms: _150  and  _151
REMARK   61  A    between atoms: _150  and  _153
REMARK   62  A    between atoms: _153  and  _154
REMARK   63  A    between atoms: _154  and  _155
REMARK   64  A    between atoms: _158  and  _160
REMARK   65  A    between atoms: _160  and  _161
REMARK   66  A    between atoms: _160  and  _163
REMARK   67  A    between atoms: _163  and  _164
REMARK   68  A    between atoms: _167  and  _169
REMARK   69  A    between atoms: _169  and  _170
REMARK   70  A    between atoms: _169  and  _172
REMARK   71  A    between atoms: _172  and  _173
REMARK   72  A    between atoms: _175  and  _177
REMARK   73  A    between atoms: _177  and  _178
REMARK   74  A    between atoms: _177  and  _180
REMARK   75  A    between atoms: _183  and  _185
REMARK   76  A    between atoms: _185  and  _186
REMARK   77  A    between atoms: _189  and  _191
REMARK   78  A    between atoms: _191  and  _192
REMARK   79  A    between atoms: _191  and  _194
REMARK   80  A    between atoms: _194  and  _195
REMARK   81  A    between atoms: _195  and  _196
REMARK   82  A    between atoms: _196  and  _197
REMARK   83  A    between atoms: _197  and  _198
REMARK   84  A    between atoms: _202  and  _204
REMARK   85  A    between atoms: _204  and  _205
REMARK   86  A    between atoms: _204  and  _207
REMARK   87  A    between atoms: _207  and  _208
REMARK   88  A    between atoms: _210  and  _212
REMARK   89  A    between atoms: _212  and  _213
REMARK   90  A    between atoms: _212  and  _215
REMARK   91  A    between atoms: _215  and  _216
REMARK   92  A    between atoms: _220  and  _221
REMARK   93  A    between atoms: _226  and  _228
REMARK   94  A    between atoms: _228  and  _229
REMARK   95  A    between atoms: _228  and  _231
REMARK   96  A    between atoms: _231  and  _232
REMARK   97  A    between atoms: _235  and  _237
REMARK   98  A    between atoms: _237  and  _238
REMARK   99  A    between atoms: _237  and  _240
REMARK  100  A    between atoms: _240  and  _241
REMARK  101  A    between atoms: _241  and  _242
REMARK  102  A    between atoms: _242  and  _243
REMARK  103  A    between atoms: _243  and  _244
REMARK  104  A    between atoms: _248  and  _250
REMARK  105  A    between atoms: _250  and  _251
REMARK  106  A    between atoms: _250  and  _253
REMARK                            x       y       z     vdW  Elec       q    Type
REMARK                         _______ _______ _______ _____ _____    ______ ____
ROOT
ATOM      1  O   HOH     1      38.909 -45.336 -13.142  0.00  0.00    +0.000 OA
ENDROOT
TORSDOF 0
REMARK  Name = ../refined-set-2016/2vo4/2vo4_pocket.pdb
REMARK  106 active torsions:
REMARK  status: ('A' for Active; 'I' for Inactive)
REMARK    1  A    between atoms: _1  and  _3
REMARK    2  A    between atoms: _3  and  _4
REMARK    3  A    between atoms: _3  and  _6
REMARK    4  A    between atoms: _6  and  _7
REMARK    5  A    between atoms: _10  and  _12
REMARK    6  A    between atoms: _12  and  _13
REMARK    7  A    between atoms: _12  and  _15
REMARK    8  A    between atoms: _15  and  _16
REMARK    9  A    between atoms: _19  and  _21
REMARK   10  A    between atoms: _21  and  _22
REMARK   11  A    between atoms: _21  and  _24
REMARK   12  A    between atoms: _24  and  _25
REMARK   13  A    between atoms: _31  and  _33
REMARK   14  A    between atoms: _33  and  _34
REMARK   15  A    between atoms: _33  and  _36
REMARK   16  A    between atoms: _36  and  _37
REMARK   17  A    between atoms: _48  and  _49
REMARK   18  A    between atoms: _54  and  _56
REMARK   19  A    between atoms: _56  and  _57
REMARK   20  A    between atoms: _56  and  _59
REMARK   21  A    between atoms: _59  and  _60
REMARK   22  A    between atoms: _62  and  _64
REMARK   23  A    between atoms: _64  and  _65
REMARK   24  A    between atoms: _64  and  _67
REMARK   25  A    between atoms: _67  and  _68
REMARK   26  A    between atoms: _68  and  _69
REMARK   27  A    between atoms: _71  and  _73
REMARK   28  A    between atoms: _73  and  _74
REMARK   29  A    between atoms: _73  and  _76
REMARK   30  A    between atoms: _76  and  _77
REMARK   31  A    between atoms: _77  and  _78
REMARK   32  A    between atoms: _78  and  _79
REMARK   33  A    between atoms: _88  and  _90
REMARK   34  A    between atoms: _90  and  _91
REMARK   35  A    between atoms: _90  and  _93
REMARK   36  A    between atoms: _93  and  _94
REMARK   37  A    between atoms: _97  and  _99
REMARK   38  A    between atoms: _99  and  _100
REMARK   39  A    between atoms: _99  and  _102
REMARK   40  A    between atoms: _102  and  _103
REMARK   41  A    between atoms: _108  and  _109
REMARK   42  A    between atoms: _111  and  _113
REMARK   43  A    between atoms: _113  and  _114
REMARK   44  A    between atoms: _113  and  _116
REMARK   45  A    between atoms: _116  and  _117
REMARK   46  A    between atoms: _117  and  _118
REMARK   47  A    between atoms: _121  and  _123
REMARK   48  A    between atoms: _123  and  _124
REMARK   49  A    between atoms: _123  and  _126
REMARK   50  A    between atoms: _126  and  _127
REMARK   51  A    between atoms: _132  and  _133
REMARK   52  A    between atoms: _135  and  _137
REMARK   53  A    between atoms: _137  and  _138
REMARK   54  A    between atoms: _137  and  _140
REMARK   55  A    between atoms: _140  and  _141
REMARK   56  A    between atoms: _141  and  _142
REMARK   57  A    between atoms: _142  and  _143
REMARK   58  A    between atoms: _143  and  _144
REMARK   59  A    between atoms: _148  and  _150
REMARK   60  A    between atoms: _150  and  _151
REMARK   61  A    between atoms: _150  and  _153
REMARK   62  A    between atoms: _153  and  _154
REMARK   63  A    between atoms: _154  and  _155
REMARK   64  A    between atoms: _158  and  _160
REMARK   65  A    between atoms: _160  and  _161
REMARK   66  A    between atoms: _160  and  _163
REMARK   67  A    between atoms: _163  and  _164
REMARK   68  A    between atoms: _167  and  _169
REMARK   69  A    between atoms: _169  and  _170
REMARK   70  A    between atoms: _169  and  _172
REMARK   71  A    between atoms: _172  and  _173
REMARK   72  A    between atoms: _175  and  _177
REMARK   73  A    between atoms: _177  and  _178
REMARK   74  A    between atoms: _177  and  _180
REMARK   75  A    between atoms: _183  and  _185
REMARK   76  A    between atoms: _185  and  _186
REMARK   77  A    between atoms: _189  and  _191
REMARK   78  A    between atoms: _191  and  _192
REMARK   79  A    between atoms: _191  and  _194
REMARK   80  A    between atoms: _194  and  _195
REMARK   81  A    between atoms: _195  and  _196
REMARK   82  A    between atoms: _196  and  _197
REMARK   83  A    between atoms: _197  and  _198
REMARK   84  A    between atoms: _202  and  _204
REMARK   85  A    between atoms: _204  and  _205
REMARK   86  A    between atoms: _204  and  _207
REMARK   87  A    between atoms: _207  and  _208
REMARK   88  A    between atoms: _210  and  _212
REMARK   89  A    between atoms: _212  and  _213
REMARK   90  A    between atoms: _212  and  _215
REMARK   91  A    between atoms: _215  and  _216
REMARK   92  A    between atoms: _220  and  _221
REMARK   93  A    between atoms: _226  and  _228
REMARK   94  A    between atoms: _228  and  _229
REMARK   95  A    between atoms: _228  and  _231
REMARK   96  A    between atoms: _231  and  _232
REMARK   97  A    between atoms: _235  and  _237
REMARK   98  A    between atoms: _237  and  _238
REMARK   99  A    between atoms: _237  and  _240
REMARK  100  A    between atoms: _240  and  _241
REMARK  101  A    between atoms: _241  and  _242
REMARK  102  A    between atoms: _242  and  _243
REMARK  103  A    between atoms: _243  and  _244
REMARK  104  A    between atoms: _248  and  _250
REMARK  105  A    between atoms: _250  and  _251
REMARK  106  A    between atoms: _250  and  _253
REMARK                            x       y       z     vdW  Elec       q    Type
REMARK                         _______ _______ _______ _____ _____    ______ ____
ROOT
ATOM      1  O   HOH     1      27.878 -49.724  -8.159  0.00  0.00    +0.000 OA
ENDROOT
TORSDOF 0
REMARK  Name = ../refined-set-2016/2vo4/2vo4_pocket.pdb
REMARK  106 active torsions:
REMARK  status: ('A' for Active; 'I' for Inactive)
REMARK    1  A    between atoms: _1  and  _3
REMARK    2  A    between atoms: _3  and  _4
REMARK    3  A    between atoms: _3  and  _6
REMARK    4  A    between atoms: _6  and  _7
REMARK    5  A    between atoms: _10  and  _12
REMARK    6  A    between atoms: _12  and  _13
REMARK    7  A    between atoms: _12  and  _15
REMARK    8  A    between atoms: _15  and  _16
REMARK    9  A    between atoms: _19  and  _21
REMARK   10  A    between atoms: _21  and  _22
REMARK   11  A    between atoms: _21  and  _24
REMARK   12  A    between atoms: _24  and  _25
REMARK   13  A    between atoms: _31  and  _33
REMARK   14  A    between atoms: _33  and  _34
REMARK   15  A    between atoms: _33  and  _36
REMARK   16  A    between atoms: _36  and  _37
REMARK   17  A    between atoms: _48  and  _49
REMARK   18  A    between atoms: _54  and  _56
REMARK   19  A    between atoms: _56  and  _57
REMARK   20  A    between atoms: _56  and  _59
REMARK   21  A    between atoms: _59  and  _60
REMARK   22  A    between atoms: _62  and  _64
REMARK   23  A    between atoms: _64  and  _65
REMARK   24  A    between atoms: _64  and  _67
REMARK   25  A    between atoms: _67  and  _68
REMARK   26  A    between atoms: _68  and  _69
REMARK   27  A    between atoms: _71  and  _73
REMARK   28  A    between atoms: _73  and  _74
REMARK   29  A    between atoms: _73  and  _76
REMARK   30  A    between atoms: _76  and  _77
REMARK   31  A    between atoms: _77  and  _78
REMARK   32  A    between atoms: _78  and  _79
REMARK   33  A    between atoms: _88  and  _90
REMARK   34  A    between atoms: _90  and  _91
REMARK   35  A    between atoms: _90  and  _93
REMARK   36  A    between atoms: _93  and  _94
REMARK   37  A    between atoms: _97  and  _99
REMARK   38  A    between atoms: _99  and  _100
REMARK   39  A    between atoms: _99  and  _102
REMARK   40  A    between atoms: _102  and  _103
REMARK   41  A    between atoms: _108  and  _109
REMARK   42  A    between atoms: _111  and  _113
REMARK   43  A    between atoms: _113  and  _114
REMARK   44  A    between atoms: _113  and  _116
REMARK   45  A    between atoms: _116  and  _117
REMARK   46  A    between atoms: _117  and  _118
REMARK   47  A    between atoms: _121  and  _123
REMARK   48  A    between atoms: _123  and  _124
REMARK   49  A    between atoms: _123  and  _126
REMARK   50  A    between atoms: _126  and  _127
REMARK   51  A    between atoms: _132  and  _133
REMARK   52  A    between atoms: _135  and  _137
REMARK   53  A    between atoms: _137  and  _138
REMARK   54  A    between atoms: _137  and  _140
REMARK   55  A    between atoms: _140  and  _141
REMARK   56  A    between atoms: _141  and  _142
REMARK   57  A    between atoms: _142  and  _143
REMARK   58  A    between atoms: _143  and  _144
REMARK   59  A    between atoms: _148  and  _150
REMARK   60  A    between atoms: _150  and  _151
REMARK   61  A    between atoms: _150  and  _153
REMARK   62  A    between atoms: _153  and  _154
REMARK   63  A    between atoms: _154  and  _155
REMARK   64  A    between atoms: _158  and  _160
REMARK   65  A    between atoms: _160  and  _161
REMARK   66  A    between atoms: _160  and  _163
REMARK   67  A    between atoms: _163  and  _164
REMARK   68  A    between atoms: _167  and  _169
REMARK   69  A    between atoms: _169  and  _170
REMARK   70  A    between atoms: _169  and  _172
REMARK   71  A    between atoms: _172  and  _173
REMARK   72  A    between atoms: _175  and  _177
REMARK   73  A    between atoms: _177  and  _178
REMARK   74  A    between atoms: _177  and  _180
REMARK   75  A    between atoms: _183  and  _185
REMARK   76  A    between atoms: _185  and  _186
REMARK   77  A    between atoms: _189  and  _191
REMARK   78  A    between atoms: _191  and  _192
REMARK   79  A    between atoms: _191  and  _194
REMARK   80  A    between atoms: _194  and  _195
REMARK   81  A    between atoms: _195  and  _196
REMARK   82  A    between atoms: _196  and  _197
REMARK   83  A    between atoms: _197  and  _198
REMARK   84  A    between atoms: _202  and  _204
REMARK   85  A    between atoms: _204  and  _205
REMARK   86  A    between atoms: _204  and  _207
REMARK   87  A    between atoms: _207  and  _208
REMARK   88  A    between atoms: _210  and  _212
REMARK   89  A    between atoms: _212  and  _213
REMARK   90  A    between atoms: _212  and  _215
REMARK   91  A    between atoms: _215  and  _216
REMARK   92  A    between atoms: _220  and  _221
REMARK   93  A    between atoms: _226  and  _228
REMARK   94  A    between atoms: _228  and  _229
REMARK   95  A    between atoms: _228  and  _231
REMARK   96  A    between atoms: _231  and  _232
REMARK   97  A    between atoms: _235  and  _237
REMARK   98  A    between atoms: _237  and  _238
REMARK   99  A    between atoms: _237  and  _240
REMARK  100  A    between atoms: _240  and  _241
REMARK  101  A    between atoms: _241  and  _242
REMARK  102  A    between atoms: _242  and  _243
REMARK  103  A    between atoms: _243  and  _244
REMARK  104  A    between atoms: _248  and  _250
REMARK  105  A    between atoms: _250  and  _251
REMARK  106  A    between atoms: _250  and  _253
REMARK                            x       y       z     vdW  Elec       q    Type
REMARK                         _______ _______ _______ _____ _____    ______ ____
ROOT
ATOM      1  O   HOH     1      21.796 -48.448  -4.962  0.00  0.00    +0.000 OA
ENDROOT
TORSDOF 0
REMARK  Name = ../refined-set-2016/2vo4/2vo4_pocket.pdb
REMARK  106 active torsions:
REMARK  status: ('A' for Active; 'I' for Inactive)
REMARK    1  A    between atoms: _1  and  _3
REMARK    2  A    between atoms: _3  and  _4
REMARK    3  A    between atoms: _3  and  _6
REMARK    4  A    between atoms: _6  and  _7
REMARK    5  A    between atoms: _10  and  _12
REMARK    6  A    between atoms: _12  and  _13
REMARK    7  A    between atoms: _12  and  _15
REMARK    8  A    between atoms: _15  and  _16
REMARK    9  A    between atoms: _19  and  _21
REMARK   10  A    between atoms: _21  and  _22
REMARK   11  A    between atoms: _21  and  _24
REMARK   12  A    between atoms: _24  and  _25
REMARK   13  A    between atoms: _31  and  _33
REMARK   14  A    between atoms: _33  and  _34
REMARK   15  A    between atoms: _33  and  _36
REMARK   16  A    between atoms: _36  and  _37
REMARK   17  A    between atoms: _48  and  _49
REMARK   18  A    between atoms: _54  and  _56
REMARK   19  A    between atoms: _56  and  _57
REMARK   20  A    between atoms: _56  and  _59
REMARK   21  A    between atoms: _59  and  _60
REMARK   22  A    between atoms: _62  and  _64
REMARK   23  A    between atoms: _64  and  _65
REMARK   24  A    between atoms: _64  and  _67
REMARK   25  A    between atoms: _67  and  _68
REMARK   26  A    between atoms: _68  and  _69
REMARK   27  A    between atoms: _71  and  _73
REMARK   28  A    between atoms: _73  and  _74
REMARK   29  A    between atoms: _73  and  _76
REMARK   30  A    between atoms: _76  and  _77
REMARK   31  A    between atoms: _77  and  _78
REMARK   32  A    between atoms: _78  and  _79
REMARK   33  A    between atoms: _88  and  _90
REMARK   34  A    between atoms: _90  and  _91
REMARK   35  A    between atoms: _90  and  _93
REMARK   36  A    between atoms: _93  and  _94
REMARK   37  A    between atoms: _97  and  _99
REMARK   38  A    between atoms: _99  and  _100
REMARK   39  A    between atoms: _99  and  _102
REMARK   40  A    between atoms: _102  and  _103
REMARK   41  A    between atoms: _108  and  _109
REMARK   42  A    between atoms: _111  and  _113
REMARK   43  A    between atoms: _113  and  _114
REMARK   44  A    between atoms: _113  and  _116
REMARK   45  A    between atoms: _116  and  _117
REMARK   46  A    between atoms: _117  and  _118
REMARK   47  A    between atoms: _121  and  _123
REMARK   48  A    between atoms: _123  and  _124
REMARK   49  A    between atoms: _123  and  _126
REMARK   50  A    between atoms: _126  and  _127
REMARK   51  A    between atoms: _132  and  _133
REMARK   52  A    between atoms: _135  and  _137
REMARK   53  A    between atoms: _137  and  _138
REMARK   54  A    between atoms: _137  and  _140
REMARK   55  A    between atoms: _140  and  _141
REMARK   56  A    between atoms: _141  and  _142
REMARK   57  A    between atoms: _142  and  _143
REMARK   58  A    between atoms: _143  and  _144
REMARK   59  A    between atoms: _148  and  _150
REMARK   60  A    between atoms: _150  and  _151
REMARK   61  A    between atoms: _150  and  _153
REMARK   62  A    between atoms: _153  and  _154
REMARK   63  A    between atoms: _154  and  _155
REMARK   64  A    between atoms: _158  and  _160
REMARK   65  A    between atoms: _160  and  _161
REMARK   66  A    between atoms: _160  and  _163
REMARK   67  A    between atoms: _163  and  _164
REMARK   68  A    between atoms: _167  and  _169
REMARK   69  A    between atoms: _169  and  _170
REMARK   70  A    between atoms: _169  and  _172
REMARK   71  A    between atoms: _172  and  _173
REMARK   72  A    between atoms: _175  and  _177
REMARK   73  A    between atoms: _177  and  _178
REMARK   74  A    between atoms: _177  and  _180
REMARK   75  A    between atoms: _183  and  _185
REMARK   76  A    between atoms: _185  and  _186
REMARK   77  A    between atoms: _189  and  _191
REMARK   78  A    between atoms: _191  and  _192
REMARK   79  A    between atoms: _191  and  _194
REMARK   80  A    between atoms: _194  and  _195
REMARK   81  A    between atoms: _195  and  _196
REMARK   82  A    between atoms: _196  and  _197
REMARK   83  A    between atoms: _197  and  _198
REMARK   84  A    between atoms: _202  and  _204
REMARK   85  A    between atoms: _204  and  _205
REMARK   86  A    between atoms: _204  and  _207
REMARK   87  A    between atoms: _207  and  _208
REMARK   88  A    between atoms: _210  and  _212
REMARK   89  A    between atoms: _212  and  _213
REMARK   90  A    between atoms: _212  and  _215
REMARK   91  A    between atoms: _215  and  _216
REMARK   92  A    between atoms: _220  and  _221
REMARK   93  A    between atoms: _226  and  _228
REMARK   94  A    between atoms: _228  and  _229
REMARK   95  A    between atoms: _228  and  _231
REMARK   96  A    between atoms: _231  and  _232
REMARK   97  A    between atoms: _235  and  _237
REMARK   98  A    between atoms: _237  and  _238
REMARK   99  A    between atoms: _237  and  _240
REMARK  100  A    between atoms: _240  and  _241
REMARK  101  A    between atoms: _241  and  _242
REMARK  102  A    between atoms: _242  and  _243
REMARK  103  A    between atoms: _243  and  _244
REMARK  104  A    between atoms: _248  and  _250
REMARK  105  A    between atoms: _250  and  _251
REMARK  106  A    between atoms: _250  and  _253
REMARK                            x       y       z     vdW  Elec       q    Type
REMARK                         _______ _______ _______ _____ _____    ______ ____
ROOT
ATOM      1  O   HOH     1      27.288 -51.509  -3.865  0.00  0.00    +0.000 OA
ENDROOT
TORSDOF 0
