REMARK  Name = ../refined-set-2016/3ekt/3ekt_pocket.pdb
REMARK  227 active torsions:
REMARK  status: ('A' for Active; 'I' for Inactive)
REMARK    1  A    between atoms: _1  and  _3
REMARK    2  A    between atoms: _3  and  _4
REMARK    3  A    between atoms: _3  and  _6
REMARK    4  A    between atoms: _6  and  _7
REMARK    5  A    between atoms: _7  and  _8
REMARK    6  A    between atoms: _8  and  _9
REMARK    7  A    between atoms: _18  and  _20
REMARK    8  A    between atoms: _20  and  _21
REMARK    9  A    between atoms: _20  and  _23
REMARK   10  A    between atoms: _23  and  _24
REMARK   11  A    between atoms: _27  and  _29
REMARK   12  A    between atoms: _29  and  _30
REMARK   13  A    between atoms: _29  and  _32
REMARK   14  A    between atoms: _32  and  _33
REMARK   15  A    between atoms: _36  and  _38
REMARK   16  A    between atoms: _38  and  _39
REMARK   17  A    between atoms: _38  and  _41
REMARK   18  A    between atoms: _41  and  _42
REMARK   19  A    between atoms: _45  and  _47
REMARK   20  A    between atoms: _47  and  _48
REMARK   21  A    between atoms: _47  and  _50
REMARK   22  A    between atoms: _50  and  _51
REMARK   23  A    between atoms: _54  and  _56
REMARK   24  A    between atoms: _56  and  _57
REMARK   25  A    between atoms: _59  and  _61
REMARK   26  A    between atoms: _61  and  _62
REMARK   27  A    between atoms: _65  and  _67
REMARK   28  A    between atoms: _67  and  _68
REMARK   29  A    between atoms: _67  and  _70
REMARK   30  A    between atoms: _70  and  _71
REMARK   31  A    between atoms: _74  and  _76
REMARK   32  A    between atoms: _76  and  _77
REMARK   33  A    between atoms: _76  and  _79
REMARK   34  A    between atoms: _79  and  _80
REMARK   35  A    between atoms: _83  and  _85
REMARK   36  A    between atoms: _85  and  _86
REMARK   37  A    between atoms: _85  and  _88
REMARK   38  A    between atoms: _88  and  _89
REMARK   39  A    between atoms: _92  and  _94
REMARK   40  A    between atoms: _94  and  _95
REMARK   41  A    between atoms: _94  and  _97
REMARK   42  A    between atoms: _100  and  _102
REMARK   43  A    between atoms: _102  and  _103
REMARK   44  A    between atoms: _102  and  _105
REMARK   45  A    between atoms: _105  and  _106
REMARK   46  A    between atoms: _106  and  _107
REMARK   47  A    between atoms: _107  and  _108
REMARK   48  A    between atoms: _108  and  _109
REMARK   49  A    between atoms: _113  and  _115
REMARK   50  A    between atoms: _115  and  _116
REMARK   51  A    between atoms: _115  and  _118
REMARK   52  A    between atoms: _118  and  _119
REMARK   53  A    between atoms: _119  and  _120
REMARK   54  A    between atoms: _122  and  _124
REMARK   55  A    between atoms: _124  and  _125
REMARK   56  A    between atoms: _124  and  _127
REMARK   57  A    between atoms: _127  and  _128
REMARK   58  A    between atoms: _131  and  _133
REMARK   59  A    between atoms: _133  and  _134
REMARK   60  A    between atoms: _133  and  _136
REMARK   61  A    between atoms: _139  and  _141
REMARK   62  A    between atoms: _141  and  _142
REMARK   63  A    between atoms: _144  and  _146
REMARK   64  A    between atoms: _146  and  _147
REMARK   65  A    between atoms: _146  and  _149
REMARK   66  A    between atoms: _149  and  _150
REMARK   67  A    between atoms: _153  and  _155
REMARK   68  A    between atoms: _155  and  _156
REMARK   69  A    between atoms: _158  and  _160
REMARK   70  A    between atoms: _160  and  _161
REMARK   71  A    between atoms: _163  and  _165
REMARK   72  A    between atoms: _165  and  _166
REMARK   73  A    between atoms: _165  and  _168
REMARK   74  A    between atoms: _171  and  _173
REMARK   75  A    between atoms: _173  and  _174
REMARK   76  A    between atoms: _173  and  _176
REMARK   77  A    between atoms: _179  and  _181
REMARK   78  A    between atoms: _181  and  _182
REMARK   79  A    between atoms: _181  and  _184
REMARK   80  A    between atoms: _184  and  _185
REMARK   81  A    between atoms: _188  and  _190
REMARK   82  A    between atoms: _190  and  _191
REMARK   83  A    between atoms: _190  and  _193
REMARK   84  A    between atoms: _193  and  _194
REMARK   85  A    between atoms: _198  and  _199
REMARK   86  A    between atoms: _204  and  _206
REMARK   87  A    between atoms: _206  and  _207
REMARK   88  A    between atoms: _210  and  _212
REMARK   89  A    between atoms: _212  and  _213
REMARK   90  A    between atoms: _212  and  _215
REMARK   91  A    between atoms: _215  and  _216
REMARK   92  A    between atoms: _221  and  _223
REMARK   93  A    between atoms: _223  and  _224
REMARK   94  A    between atoms: _223  and  _226
REMARK   95  A    between atoms: _226  and  _227
REMARK   96  A    between atoms: _230  and  _232
REMARK   97  A    between atoms: _232  and  _233
REMARK   98  A    between atoms: _232  and  _235
REMARK   99  A    between atoms: _235  and  _236
REMARK  100  A    between atoms: _239  and  _241
REMARK  101  A    between atoms: _241  and  _242
REMARK  102  A    between atoms: _244  and  _246
REMARK  103  A    between atoms: _246  and  _247
REMARK  104  A    between atoms: _246  and  _249
REMARK  105  A    between atoms: _249  and  _250
REMARK  106  A    between atoms: _250  and  _251
REMARK  107  A    between atoms: _251  and  _252
REMARK  108  A    between atoms: _261  and  _263
REMARK  109  A    between atoms: _263  and  _264
REMARK  110  A    between atoms: _263  and  _266
REMARK  111  A    between atoms: _266  and  _267
REMARK  112  A    between atoms: _272  and  _274
REMARK  113  A    between atoms: _274  and  _275
REMARK  114  A    between atoms: _274  and  _277
REMARK  115  A    between atoms: _277  and  _278
REMARK  116  A    between atoms: _278  and  _279
REMARK  117  A    between atoms: _279  and  _280
REMARK  118  A    between atoms: _289  and  _291
REMARK  119  A    between atoms: _291  and  _292
REMARK  120  A    between atoms: _291  and  _294
REMARK  121  A    between atoms: _294  and  _295
REMARK  122  A    between atoms: _298  and  _300
REMARK  123  A    between atoms: _300  and  _301
REMARK  124  A    between atoms: _300  and  _303
REMARK  125  A    between atoms: _303  and  _304
REMARK  126  A    between atoms: _307  and  _309
REMARK  127  A    between atoms: _309  and  _310
REMARK  128  A    between atoms: _309  and  _312
REMARK  129  A    between atoms: _312  and  _313
REMARK  130  A    between atoms: _316  and  _318
REMARK  131  A    between atoms: _318  and  _319
REMARK  132  A    between atoms: _318  and  _321
REMARK  133  A    between atoms: _321  and  _322
REMARK  134  A    between atoms: _325  and  _327
REMARK  135  A    between atoms: _327  and  _328
REMARK  136  A    between atoms: _330  and  _332
REMARK  137  A    between atoms: _332  and  _333
REMARK  138  A    between atoms: _336  and  _338
REMARK  139  A    between atoms: _338  and  _339
REMARK  140  A    between atoms: _338  and  _341
REMARK  141  A    between atoms: _341  and  _342
REMARK  142  A    between atoms: _345  and  _347
REMARK  143  A    between atoms: _347  and  _348
REMARK  144  A    between atoms: _347  and  _350
REMARK  145  A    between atoms: _350  and  _351
REMARK  146  A    between atoms: _354  and  _356
REMARK  147  A    between atoms: _356  and  _357
REMARK  148  A    between atoms: _356  and  _359
REMARK  149  A    between atoms: _359  and  _360
REMARK  150  A    between atoms: _363  and  _365
REMARK  151  A    between atoms: _365  and  _366
REMARK  152  A    between atoms: _365  and  _368
REMARK  153  A    between atoms: _371  and  _373
REMARK  154  A    between atoms: _373  and  _374
REMARK  155  A    between atoms: _373  and  _376
REMARK  156  A    between atoms: _376  and  _377
REMARK  157  A    between atoms: _380  and  _382
REMARK  158  A    between atoms: _382  and  _383
REMARK  159  A    between atoms: _382  and  _385
REMARK  160  A    between atoms: _385  and  _386
REMARK  161  A    between atoms: _386  and  _387
REMARK  162  A    between atoms: _387  and  _388
REMARK  163  A    between atoms: _388  and  _389
REMARK  164  A    between atoms: _393  and  _395
REMARK  165  A    between atoms: _395  and  _396
REMARK  166  A    between atoms: _395  and  _398
REMARK  167  A    between atoms: _398  and  _399
REMARK  168  A    between atoms: _399  and  _400
REMARK  169  A    between atoms: _402  and  _404
REMARK  170  A    between atoms: _404  and  _405
REMARK  171  A    between atoms: _404  and  _407
REMARK  172  A    between atoms: _407  and  _408
REMARK  173  A    between atoms: _411  and  _413
REMARK  174  A    between atoms: _413  and  _414
REMARK  175  A    between atoms: _413  and  _416
REMARK  176  A    between atoms: _419  and  _421
REMARK  177  A    between atoms: _421  and  _422
REMARK  178  A    between atoms: _424  and  _426
REMARK  179  A    between atoms: _426  and  _427
REMARK  180  A    between atoms: _426  and  _429
REMARK  181  A    between atoms: _429  and  _430
REMARK  182  A    between atoms: _433  and  _435
REMARK  183  A    between atoms: _435  and  _436
REMARK  184  A    between atoms: _438  and  _440
REMARK  185  A    between atoms: _440  and  _441
REMARK  186  A    between atoms: _443  and  _445
REMARK  187  A    between atoms: _445  and  _446
REMARK  188  A    between atoms: _445  and  _448
REMARK  189  A    between atoms: _451  and  _453
REMARK  190  A    between atoms: _453  and  _454
REMARK  191  A    between atoms: _453  and  _456
REMARK  192  A    between atoms: _459  and  _461
REMARK  193  A    between atoms: _461  and  _462
REMARK  194  A    between atoms: _461  and  _464
REMARK  195  A    between atoms: _464  and  _465
REMARK  196  A    between atoms: _469  and  _470
REMARK  197  A    between atoms: _475  and  _477
REMARK  198  A    between atoms: _477  and  _478
REMARK  199  A    between atoms: _477  and  _480
REMARK  200  A    between atoms: _480  and  _481
REMARK  201  A    between atoms: _485  and  _486
REMARK  202  A    between atoms: _491  and  _493
REMARK  203  A    between atoms: _493  and  _494
REMARK  204  A    between atoms: _497  and  _499
REMARK  205  A    between atoms: _499  and  _500
REMARK  206  A    between atoms: _499  and  _502
REMARK  207  A    between atoms: _502  and  _503
REMARK  208  A    between atoms: _508  and  _510
REMARK  209  A    between atoms: _510  and  _511
REMARK  210  A    between atoms: _510  and  _513
REMARK  211  A    between atoms: _513  and  _514
REMARK  212  A    between atoms: _517  and  _519
REMARK  213  A    between atoms: _519  and  _520
REMARK  214  A    between atoms: _519  and  _522
REMARK  215  A    between atoms: _522  and  _523
REMARK  216  A    between atoms: _526  and  _528
REMARK  217  A    between atoms: _528  and  _529
REMARK  218  A    between atoms: _531  and  _533
REMARK  219  A    between atoms: _533  and  _534
REMARK  220  A    between atoms: _533  and  _536
REMARK  221  A    between atoms: _536  and  _537
REMARK  222  A    between atoms: _537  and  _538
REMARK  223  A    between atoms: _538  and  _539
REMARK  224  A    between atoms: _548  and  _550
REMARK  225  A    between atoms: _550  and  _551
REMARK  226  A    between atoms: _550  and  _553
REMARK  227  A    between atoms: _553  and  _554
REMARK                            x       y       z     vdW  Elec       q    Type
REMARK                         _______ _______ _______ _____ _____    ______ ____
ROOT
ATOM      1  NE  ARG A   1      20.670  51.812  -3.037  0.00  0.00    -0.265 N 
ATOM      2  CZ  ARG A   1      21.880  51.612  -2.527  0.00  0.00    +0.342 C 
ATOM      3  NH2 ARG A   1      22.018  51.385  -1.222  0.00  0.00    -0.292 N 
ATOM      4 HH21 ARG A   1      21.180  51.365  -0.606  0.00  0.00    +0.255 HD
ATOM      5 HH22 ARG A   1      22.964  51.228  -0.819  0.00  0.00    +0.255 HD
ATOM      6  NH1 ARG A   1      22.949  51.649  -3.318  0.00  0.00    -0.292 N 
ATOM      7 HH11 ARG A   1      23.897  51.492  -2.919  0.00  0.00    +0.255 HD
ATOM      8 HH12 ARG A   1      22.837  51.834  -4.335  0.00  0.00    +0.255 HD
ATOM      9  HE  ARG A   1      20.596  51.997  -4.058  0.00  0.00    +0.259 HD
ENDROOT
BRANCH   1  10
ATOM     10  CD  ARG A   1      19.439  51.789  -2.255  0.00  0.00    +0.174 C 
BRANCH  10  11
ATOM     11  CG  ARG A   1      18.290  52.317  -3.071  0.00  0.00    +0.045 C 
BRANCH  11  12
ATOM     12  CB  ARG A   1      16.981  52.219  -2.319  0.00  0.00    +0.029 C 
BRANCH  12  13
ATOM     13  CA  ARG A   1      15.839  52.950  -3.011  0.00  0.00    +0.133 C 
BRANCH  13  14
ATOM     14  N   ARG A   1      16.104  54.385  -3.074  0.00  0.00    -0.239 NA
ATOM     15  H   ARG A   1      16.979  54.767  -2.662  0.00  0.00    +0.142 HD
ENDBRANCH  13  14
BRANCH  13  16
ATOM     16  C   ARG A   1      14.537  52.720  -2.262  0.00  0.00    +0.224 C 
ATOM     17  O   ARG A   1      14.295  53.346  -1.231  0.00  0.00    -0.287 OA
ENDBRANCH  13  16
ENDBRANCH  12  13
ENDBRANCH  11  12
ENDBRANCH  10  11
ENDBRANCH   1  10
TORSDOF 6
REMARK  Name = ../refined-set-2016/3ekt/3ekt_pocket.pdb
REMARK  227 active torsions:
REMARK  status: ('A' for Active; 'I' for Inactive)
REMARK    1  A    between atoms: _1  and  _3
REMARK    2  A    between atoms: _3  and  _4
REMARK    3  A    between atoms: _3  and  _6
REMARK    4  A    between atoms: _6  and  _7
REMARK    5  A    between atoms: _7  and  _8
REMARK    6  A    between atoms: _8  and  _9
REMARK    7  A    between atoms: _18  and  _20
REMARK    8  A    between atoms: _20  and  _21
REMARK    9  A    between atoms: _20  and  _23
REMARK   10  A    between atoms: _23  and  _24
REMARK   11  A    between atoms: _27  and  _29
REMARK   12  A    between atoms: _29  and  _30
REMARK   13  A    between atoms: _29  and  _32
REMARK   14  A    between atoms: _32  and  _33
REMARK   15  A    between atoms: _36  and  _38
REMARK   16  A    between atoms: _38  and  _39
REMARK   17  A    between atoms: _38  and  _41
REMARK   18  A    between atoms: _41  and  _42
REMARK   19  A    between atoms: _45  and  _47
REMARK   20  A    between atoms: _47  and  _48
REMARK   21  A    between atoms: _47  and  _50
REMARK   22  A    between atoms: _50  and  _51
REMARK   23  A    between atoms: _54  and  _56
REMARK   24  A    between atoms: _56  and  _57
REMARK   25  A    between atoms: _59  and  _61
REMARK   26  A    between atoms: _61  and  _62
REMARK   27  A    between atoms: _65  and  _67
REMARK   28  A    between atoms: _67  and  _68
REMARK   29  A    between atoms: _67  and  _70
REMARK   30  A    between atoms: _70  and  _71
REMARK   31  A    between atoms: _74  and  _76
REMARK   32  A    between atoms: _76  and  _77
REMARK   33  A    between atoms: _76  and  _79
REMARK   34  A    between atoms: _79  and  _80
REMARK   35  A    between atoms: _83  and  _85
REMARK   36  A    between atoms: _85  and  _86
REMARK   37  A    between atoms: _85  and  _88
REMARK   38  A    between atoms: _88  and  _89
REMARK   39  A    between atoms: _92  and  _94
REMARK   40  A    between atoms: _94  and  _95
REMARK   41  A    between atoms: _94  and  _97
REMARK   42  A    between atoms: _100  and  _102
REMARK   43  A    between atoms: _102  and  _103
REMARK   44  A    between atoms: _102  and  _105
REMARK   45  A    between atoms: _105  and  _106
REMARK   46  A    between atoms: _106  and  _107
REMARK   47  A    between atoms: _107  and  _108
REMARK   48  A    between atoms: _108  and  _109
REMARK   49  A    between atoms: _113  and  _115
REMARK   50  A    between atoms: _115  and  _116
REMARK   51  A    between atoms: _115  and  _118
REMARK   52  A    between atoms: _118  and  _119
REMARK   53  A    between atoms: _119  and  _120
REMARK   54  A    between atoms: _122  and  _124
REMARK   55  A    between atoms: _124  and  _125
REMARK   56  A    between atoms: _124  and  _127
REMARK   57  A    between atoms: _127  and  _128
REMARK   58  A    between atoms: _131  and  _133
REMARK   59  A    between atoms: _133  and  _134
REMARK   60  A    between atoms: _133  and  _136
REMARK   61  A    between atoms: _139  and  _141
REMARK   62  A    between atoms: _141  and  _142
REMARK   63  A    between atoms: _144  and  _146
REMARK   64  A    between atoms: _146  and  _147
REMARK   65  A    between atoms: _146  and  _149
REMARK   66  A    between atoms: _149  and  _150
REMARK   67  A    between atoms: _153  and  _155
REMARK   68  A    between atoms: _155  and  _156
REMARK   69  A    between atoms: _158  and  _160
REMARK   70  A    between atoms: _160  and  _161
REMARK   71  A    between atoms: _163  and  _165
REMARK   72  A    between atoms: _165  and  _166
REMARK   73  A    between atoms: _165  and  _168
REMARK   74  A    between atoms: _171  and  _173
REMARK   75  A    between atoms: _173  and  _174
REMARK   76  A    between atoms: _173  and  _176
REMARK   77  A    between atoms: _179  and  _181
REMARK   78  A    between atoms: _181  and  _182
REMARK   79  A    between atoms: _181  and  _184
REMARK   80  A    between atoms: _184  and  _185
REMARK   81  A    between atoms: _188  and  _190
REMARK   82  A    between atoms: _190  and  _191
REMARK   83  A    between atoms: _190  and  _193
REMARK   84  A    between atoms: _193  and  _194
REMARK   85  A    between atoms: _198  and  _199
REMARK   86  A    between atoms: _204  and  _206
REMARK   87  A    between atoms: _206  and  _207
REMARK   88  A    between atoms: _210  and  _212
REMARK   89  A    between atoms: _212  and  _213
REMARK   90  A    between atoms: _212  and  _215
REMARK   91  A    between atoms: _215  and  _216
REMARK   92  A    between atoms: _221  and  _223
REMARK   93  A    between atoms: _223  and  _224
REMARK   94  A    between atoms: _223  and  _226
REMARK   95  A    between atoms: _226  and  _227
REMARK   96  A    between atoms: _230  and  _232
REMARK   97  A    between atoms: _232  and  _233
REMARK   98  A    between atoms: _232  and  _235
REMARK   99  A    between atoms: _235  and  _236
REMARK  100  A    between atoms: _239  and  _241
REMARK  101  A    between atoms: _241  and  _242
REMARK  102  A    between atoms: _244  and  _246
REMARK  103  A    between atoms: _246  and  _247
REMARK  104  A    between atoms: _246  and  _249
REMARK  105  A    between atoms: _249  and  _250
REMARK  106  A    between atoms: _250  and  _251
REMARK  107  A    between atoms: _251  and  _252
REMARK  108  A    between atoms: _261  and  _263
REMARK  109  A    between atoms: _263  and  _264
REMARK  110  A    between atoms: _263  and  _266
REMARK  111  A    between atoms: _266  and  _267
REMARK  112  A    between atoms: _272  and  _274
REMARK  113  A    between atoms: _274  and  _275
REMARK  114  A    between atoms: _274  and  _277
REMARK  115  A    between atoms: _277  and  _278
REMARK  116  A    between atoms: _278  and  _279
REMARK  117  A    between atoms: _279  and  _280
REMARK  118  A    between atoms: _289  and  _291
REMARK  119  A    between atoms: _291  and  _292
REMARK  120  A    between atoms: _291  and  _294
REMARK  121  A    between atoms: _294  and  _295
REMARK  122  A    between atoms: _298  and  _300
REMARK  123  A    between atoms: _300  and  _301
REMARK  124  A    between atoms: _300  and  _303
REMARK  125  A    between atoms: _303  and  _304
REMARK  126  A    between atoms: _307  and  _309
REMARK  127  A    between atoms: _309  and  _310
REMARK  128  A    between atoms: _309  and  _312
REMARK  129  A    between atoms: _312  and  _313
REMARK  130  A    between atoms: _316  and  _318
REMARK  131  A    between atoms: _318  and  _319
REMARK  132  A    between atoms: _318  and  _321
REMARK  133  A    between atoms: _321  and  _322
REMARK  134  A    between atoms: _325  and  _327
REMARK  135  A    between atoms: _327  and  _328
REMARK  136  A    between atoms: _330  and  _332
REMARK  137  A    between atoms: _332  and  _333
REMARK  138  A    between atoms: _336  and  _338
REMARK  139  A    between atoms: _338  and  _339
REMARK  140  A    between atoms: _338  and  _341
REMARK  141  A    between atoms: _341  and  _342
REMARK  142  A    between atoms: _345  and  _347
REMARK  143  A    between atoms: _347  and  _348
REMARK  144  A    between atoms: _347  and  _350
REMARK  145  A    between atoms: _350  and  _351
REMARK  146  A    between atoms: _354  and  _356
REMARK  147  A    between atoms: _356  and  _357
REMARK  148  A    between atoms: _356  and  _359
REMARK  149  A    between atoms: _359  and  _360
REMARK  150  A    between atoms: _363  and  _365
REMARK  151  A    between atoms: _365  and  _366
REMARK  152  A    between atoms: _365  and  _368
REMARK  153  A    between atoms: _371  and  _373
REMARK  154  A    between atoms: _373  and  _374
REMARK  155  A    between atoms: _373  and  _376
REMARK  156  A    between atoms: _376  and  _377
REMARK  157  A    between atoms: _380  and  _382
REMARK  158  A    between atoms: _382  and  _383
REMARK  159  A    between atoms: _382  and  _385
REMARK  160  A    between atoms: _385  and  _386
REMARK  161  A    between atoms: _386  and  _387
REMARK  162  A    between atoms: _387  and  _388
REMARK  163  A    between atoms: _388  and  _389
REMARK  164  A    between atoms: _393  and  _395
REMARK  165  A    between atoms: _395  and  _396
REMARK  166  A    between atoms: _395  and  _398
REMARK  167  A    between atoms: _398  and  _399
REMARK  168  A    between atoms: _399  and  _400
REMARK  169  A    between atoms: _402  and  _404
REMARK  170  A    between atoms: _404  and  _405
REMARK  171  A    between atoms: _404  and  _407
REMARK  172  A    between atoms: _407  and  _408
REMARK  173  A    between atoms: _411  and  _413
REMARK  174  A    between atoms: _413  and  _414
REMARK  175  A    between atoms: _413  and  _416
REMARK  176  A    between atoms: _419  and  _421
REMARK  177  A    between atoms: _421  and  _422
REMARK  178  A    between atoms: _424  and  _426
REMARK  179  A    between atoms: _426  and  _427
REMARK  180  A    between atoms: _426  and  _429
REMARK  181  A    between atoms: _429  and  _430
REMARK  182  A    between atoms: _433  and  _435
REMARK  183  A    between atoms: _435  and  _436
REMARK  184  A    between atoms: _438  and  _440
REMARK  185  A    between atoms: _440  and  _441
REMARK  186  A    between atoms: _443  and  _445
REMARK  187  A    between atoms: _445  and  _446
REMARK  188  A    between atoms: _445  and  _448
REMARK  189  A    between atoms: _451  and  _453
REMARK  190  A    between atoms: _453  and  _454
REMARK  191  A    between atoms: _453  and  _456
REMARK  192  A    between atoms: _459  and  _461
REMARK  193  A    between atoms: _461  and  _462
REMARK  194  A    between atoms: _461  and  _464
REMARK  195  A    between atoms: _464  and  _465
REMARK  196  A    between atoms: _469  and  _470
REMARK  197  A    between atoms: _475  and  _477
REMARK  198  A    between atoms: _477  and  _478
REMARK  199  A    between atoms: _477  and  _480
REMARK  200  A    between atoms: _480  and  _481
REMARK  201  A    between atoms: _485  and  _486
REMARK  202  A    between atoms: _491  and  _493
REMARK  203  A    between atoms: _493  and  _494
REMARK  204  A    between atoms: _497  and  _499
REMARK  205  A    between atoms: _499  and  _500
REMARK  206  A    between atoms: _499  and  _502
REMARK  207  A    between atoms: _502  and  _503
REMARK  208  A    between atoms: _508  and  _510
REMARK  209  A    between atoms: _510  and  _511
REMARK  210  A    between atoms: _510  and  _513
REMARK  211  A    between atoms: _513  and  _514
REMARK  212  A    between atoms: _517  and  _519
REMARK  213  A    between atoms: _519  and  _520
REMARK  214  A    between atoms: _519  and  _522
REMARK  215  A    between atoms: _522  and  _523
REMARK  216  A    between atoms: _526  and  _528
REMARK  217  A    between atoms: _528  and  _529
REMARK  218  A    between atoms: _531  and  _533
REMARK  219  A    between atoms: _533  and  _534
REMARK  220  A    between atoms: _533  and  _536
REMARK  221  A    between atoms: _536  and  _537
REMARK  222  A    between atoms: _537  and  _538
REMARK  223  A    between atoms: _538  and  _539
REMARK  224  A    between atoms: _548  and  _550
REMARK  225  A    between atoms: _550  and  _551
REMARK  226  A    between atoms: _550  and  _553
REMARK  227  A    between atoms: _553  and  _554
REMARK                            x       y       z     vdW  Elec       q    Type
REMARK                         _______ _______ _______ _____ _____    ______ ____
ROOT
ATOM      1  C   GLY A   5      13.738  41.204 -10.118  0.00  0.00    +0.243 C 
ATOM      2  N   ALA A   6      13.270  40.924  -8.908  0.00  0.00    -0.297 N 
ATOM      3  H   ALA A   6      12.719  41.650  -8.406  0.00  0.00    +0.150 HD
ATOM      4  O   GLY A   5      14.429  40.423 -10.764  0.00  0.00    -0.273 OA
ENDROOT
BRANCH   2   5
ATOM      5  CA  ALA A   6      13.496  39.642  -8.254  0.00  0.00    +0.149 C 
ATOM      6  CB  ALA A   6      13.925  39.881  -6.821  0.00  0.00    +0.031 C 
BRANCH   5   7
ATOM      7  C   ALA A   6      12.251  38.746  -8.297  0.00  0.00    +0.241 C 
ATOM      8  O   ALA A   6      11.171  39.145  -7.869  0.00  0.00    -0.273 OA
ATOM      9  N   ASP A   7      12.409  37.529  -8.798  0.00  0.00    -0.297 N 
ATOM     10  H   ASP A   7      13.333  37.260  -9.192  0.00  0.00    +0.150 HD
BRANCH   9  11
ATOM     11  CA  ASP A   7      11.317  36.552  -8.812  0.00  0.00    +0.160 C 
BRANCH  11  12
ATOM     12  C   ASP A   7      10.951  36.205  -7.381  0.00  0.00    +0.241 C 
ATOM     13  N   ASP A   8      11.991  36.091  -6.555  0.00  0.00    -0.297 N 
ATOM     14  H   ASP A   8      12.910  36.451  -6.882  0.00  0.00    +0.150 HD
ATOM     15  O   ASP A   7       9.772  36.049  -7.048  0.00  0.00    -0.273 OA
BRANCH  13  16
ATOM     16  CA  ASP A   8      11.930  35.498  -5.228  0.00  0.00    +0.160 C 
BRANCH  16  17
ATOM     17  C   ASP A   8      12.473  36.471  -4.188  0.00  0.00    +0.241 C 
ATOM     18  N   THR A   9      11.959  36.340  -2.973  0.00  0.00    -0.295 N 
ATOM     19  H   THR A   9      11.172  35.673  -2.843  0.00  0.00    +0.150 HD
ATOM     20  O   ASP A   8      13.334  37.309  -4.472  0.00  0.00    -0.273 OA
BRANCH  18  21
ATOM     21  CA  THR A   9      12.433  37.075  -1.814  0.00  0.00    +0.176 C 
BRANCH  21  22
ATOM     22  C   THR A   9      13.694  36.388  -1.283  0.00  0.00    +0.243 C 
ATOM     23  O   THR A   9      13.711  35.166  -1.111  0.00  0.00    -0.273 OA
ATOM     24  N   VAL A  10      14.765  37.172  -1.141  0.00  0.00    -0.298 N 
ATOM     25  H   VAL A  10      14.677  38.175  -1.400  0.00  0.00    +0.150 HD
BRANCH  24  26
ATOM     26  CA  VAL A  10      16.055  36.699  -0.642  0.00  0.00    +0.137 C 
BRANCH  26  27
ATOM     27  CB  VAL A  10      17.157  36.690  -1.734  0.00  0.00    +0.026 C 
ATOM     28  CG2 VAL A  10      18.357  35.878  -1.258  0.00  0.00    +0.002 C 
ATOM     29  CG1 VAL A  10      16.635  36.142  -3.035  0.00  0.00    +0.002 C 
ENDBRANCH  26  27
BRANCH  26  30
ATOM     30  C   VAL A  10      16.563  37.597   0.482  0.00  0.00    +0.227 C 
ATOM     31  O   VAL A  10      16.757  38.788   0.294  0.00  0.00    -0.286 OA
ENDBRANCH  26  30
ENDBRANCH  24  26
ENDBRANCH  21  22
BRANCH  21  32
ATOM     32  CB  THR A   9      11.305  37.120  -0.746  0.00  0.00    +0.137 C 
ATOM     33  CG2 THR A   9      11.782  37.726   0.566  0.00  0.00    +0.034 C 
BRANCH  32  34
ATOM     34  OG1 THR A   9      10.204  37.895  -1.259  0.00  0.00    -0.382 OA
ATOM     35  HG1 THR A   9       9.863  37.474  -2.088  0.00  0.00    +0.210 HD
ENDBRANCH  32  34
ENDBRANCH  21  32
ENDBRANCH  18  21
ENDBRANCH  16  17
BRANCH  16  36
ATOM     36  CB  ASP A   8      12.784  34.220  -5.158  0.00  0.00    +0.143 C 
BRANCH  36  37
ATOM     37  CG  ASP A   8      12.483  33.231  -6.278  0.00  0.00    +0.367 C 
ATOM     38  OD2 ASP A   8      11.302  32.847  -6.432  0.00  0.00    -0.246 OA
ATOM     39  OD1 ASP A   8      13.454  32.762  -6.934  0.00  0.00    -0.246 OA
ENDBRANCH  36  37
ENDBRANCH  16  36
ENDBRANCH  13  16
ENDBRANCH  11  12
BRANCH  11  40
ATOM     40  CB  ASP A   7      11.737  35.255  -9.505  0.00  0.00    +0.143 C 
BRANCH  40  41
ATOM     41  CG  ASP A   7      11.942  35.406 -10.995  0.00  0.00    +0.367 C 
ATOM     42  OD2 ASP A   7      12.670  34.565 -11.554  0.00  0.00    -0.246 OA
ATOM     43  OD1 ASP A   7      11.408  36.348 -11.612  0.00  0.00    -0.246 OA
ENDBRANCH  40  41
ENDBRANCH  11  40
ENDBRANCH   9  11
ENDBRANCH   5   7
ENDBRANCH   2   5
BRANCH   1  44
ATOM     44  CA  GLY A   5      13.338  42.548 -10.696  0.00  0.00    +0.176 C 
BRANCH  44  46
ATOM     45  C   THR A   4      11.109  43.165  -9.908  0.00  0.00    +0.243 C 
ATOM     46  N   GLY A   5      12.433  43.310  -9.844  0.00  0.00    -0.295 N 
ATOM     47  H   GLY A   5      12.833  43.988  -9.165  0.00  0.00    +0.150 HD
ATOM     48  O   THR A   4      10.562  42.326 -10.628  0.00  0.00    -0.273 OA
BRANCH  45  49
ATOM     49  CA  THR A   4      10.283  44.024  -8.952  0.00  0.00    +0.176 C 
BRANCH  49  52
ATOM     50  C   ASP A   3      11.636  43.824  -6.934  0.00  0.00    +0.241 C 
ATOM     51  O   ASP A   3      11.530  42.593  -6.910  0.00  0.00    -0.273 OA
ATOM     52  N   THR A   4      11.109  44.579  -7.890  0.00  0.00    -0.295 N 
ATOM     53  H   THR A   4      11.293  45.603  -7.880  0.00  0.00    +0.150 HD
BRANCH  50  54
ATOM     54  CA  ASP A   3      12.417  44.584  -5.865  0.00  0.00    +0.160 C 
BRANCH  54  56
ATOM     55  C   LEU A   2      11.530  46.112  -4.182  0.00  0.00    +0.241 C 
ATOM     56  N   ASP A   3      11.570  44.889  -4.709  0.00  0.00    -0.297 N 
ATOM     57  H   ASP A   3      10.988  44.135  -4.291  0.00  0.00    +0.150 HD
ATOM     58  O   LEU A   2      11.883  47.112  -4.797  0.00  0.00    -0.273 OA
BRANCH  55  59
ATOM     59  CA  LEU A   2      11.005  46.228  -2.757  0.00  0.00    +0.149 C 
BRANCH  59  62
ATOM     60  C   LEU A   1      13.065  45.861  -1.522  0.00  0.00    +0.238 C 
ATOM     61  O   LEU A   1      13.019  44.660  -1.753  0.00  0.00    -0.274 OA
ATOM     62  N   LEU A   2      12.095  46.688  -1.889  0.00  0.00    -0.297 N 
ATOM     63  H   LEU A   2      12.107  47.674  -1.558  0.00  0.00    +0.150 HD
BRANCH  60  64
ATOM     64  CA  LEU A   1      14.241  46.466  -0.771  0.00  0.00    +0.145 C 
BRANCH  64  65
ATOM     65  N   LEU A   1      14.459  45.736   0.456  0.00  0.00    -0.238 NA
ATOM     66  H   LEU A   1      15.011  44.856   0.416  0.00  0.00    +0.142 HD
ENDBRANCH  64  65
BRANCH  64  67
ATOM     67  CB  LEU A   1      15.516  46.374  -1.606  0.00  0.00    +0.026 C 
BRANCH  67  68
ATOM     68  CG  LEU A   1      15.736  47.240  -2.831  0.00  0.00    +0.002 C 
ATOM     69  CD2 LEU A   1      15.847  48.697  -2.464  0.00  0.00    +0.000 C 
ATOM     70  CD1 LEU A   1      17.016  46.766  -3.521  0.00  0.00    +0.000 C 
ENDBRANCH  67  68
ENDBRANCH  64  67
ENDBRANCH  60  64
ENDBRANCH  59  62
BRANCH  59  71
ATOM     71  CB  LEU A   2       9.838  47.198  -2.702  0.00  0.00    +0.029 C 
BRANCH  71  72
ATOM     72  CG  LEU A   2       9.299  47.460  -1.303  0.00  0.00    +0.002 C 
ATOM     73  CD2 LEU A   2       8.829  46.145  -0.692  0.00  0.00    +0.000 C 
ATOM     74  CD1 LEU A   2       8.164  48.492  -1.354  0.00  0.00    +0.000 C 
ENDBRANCH  71  72
ENDBRANCH  59  71
ENDBRANCH  55  59
ENDBRANCH  54  56
BRANCH  54  75
ATOM     75  CB  ASP A   3      13.649  43.788  -5.411  0.00  0.00    +0.143 C 
BRANCH  75  76
ATOM     76  CG  ASP A   3      14.692  43.614  -6.515  0.00  0.00    +0.367 C 
ATOM     77  OD2 ASP A   3      15.780  43.081  -6.206  0.00  0.00    -0.246 OA
ATOM     78  OD1 ASP A   3      14.424  43.992  -7.676  0.00  0.00    -0.246 OA
ENDBRANCH  75  76
ENDBRANCH  54  75
ENDBRANCH  50  54
ENDBRANCH  49  52
BRANCH  49  79
ATOM     79  CB  THR A   4       9.562  45.145  -9.723  0.00  0.00    +0.137 C 
ATOM     80  CG2 THR A   4       8.622  45.906  -8.799  0.00  0.00    +0.034 C 
BRANCH  79  81
ATOM     81  OG1 THR A   4      10.516  46.057 -10.274  0.00  0.00    -0.382 OA
ATOM     82  HG1 THR A   4      11.116  45.571 -10.893  0.00  0.00    +0.210 HD
ENDBRANCH  79  81
ENDBRANCH  49  79
ENDBRANCH  45  49
ENDBRANCH  44  46
ENDBRANCH   1  44
TORSDOF 35
REMARK  Name = ../refined-set-2016/3ekt/3ekt_pocket.pdb
REMARK  227 active torsions:
REMARK  status: ('A' for Active; 'I' for Inactive)
REMARK    1  A    between atoms: _1  and  _3
REMARK    2  A    between atoms: _3  and  _4
REMARK    3  A    between atoms: _3  and  _6
REMARK    4  A    between atoms: _6  and  _7
REMARK    5  A    between atoms: _7  and  _8
REMARK    6  A    between atoms: _8  and  _9
REMARK    7  A    between atoms: _18  and  _20
REMARK    8  A    between atoms: _20  and  _21
REMARK    9  A    between atoms: _20  and  _23
REMARK   10  A    between atoms: _23  and  _24
REMARK   11  A    between atoms: _27  and  _29
REMARK   12  A    between atoms: _29  and  _30
REMARK   13  A    between atoms: _29  and  _32
REMARK   14  A    between atoms: _32  and  _33
REMARK   15  A    between atoms: _36  and  _38
REMARK   16  A    between atoms: _38  and  _39
REMARK   17  A    between atoms: _38  and  _41
REMARK   18  A    between atoms: _41  and  _42
REMARK   19  A    between atoms: _45  and  _47
REMARK   20  A    between atoms: _47  and  _48
REMARK   21  A    between atoms: _47  and  _50
REMARK   22  A    between atoms: _50  and  _51
REMARK   23  A    between atoms: _54  and  _56
REMARK   24  A    between atoms: _56  and  _57
REMARK   25  A    between atoms: _59  and  _61
REMARK   26  A    between atoms: _61  and  _62
REMARK   27  A    between atoms: _65  and  _67
REMARK   28  A    between atoms: _67  and  _68
REMARK   29  A    between atoms: _67  and  _70
REMARK   30  A    between atoms: _70  and  _71
REMARK   31  A    between atoms: _74  and  _76
REMARK   32  A    between atoms: _76  and  _77
REMARK   33  A    between atoms: _76  and  _79
REMARK   34  A    between atoms: _79  and  _80
REMARK   35  A    between atoms: _83  and  _85
REMARK   36  A    between atoms: _85  and  _86
REMARK   37  A    between atoms: _85  and  _88
REMARK   38  A    between atoms: _88  and  _89
REMARK   39  A    between atoms: _92  and  _94
REMARK   40  A    between atoms: _94  and  _95
REMARK   41  A    between atoms: _94  and  _97
REMARK   42  A    between atoms: _100  and  _102
REMARK   43  A    between atoms: _102  and  _103
REMARK   44  A    between atoms: _102  and  _105
REMARK   45  A    between atoms: _105  and  _106
REMARK   46  A    between atoms: _106  and  _107
REMARK   47  A    between atoms: _107  and  _108
REMARK   48  A    between atoms: _108  and  _109
REMARK   49  A    between atoms: _113  and  _115
REMARK   50  A    between atoms: _115  and  _116
REMARK   51  A    between atoms: _115  and  _118
REMARK   52  A    between atoms: _118  and  _119
REMARK   53  A    between atoms: _119  and  _120
REMARK   54  A    between atoms: _122  and  _124
REMARK   55  A    between atoms: _124  and  _125
REMARK   56  A    between atoms: _124  and  _127
REMARK   57  A    between atoms: _127  and  _128
REMARK   58  A    between atoms: _131  and  _133
REMARK   59  A    between atoms: _133  and  _134
REMARK   60  A    between atoms: _133  and  _136
REMARK   61  A    between atoms: _139  and  _141
REMARK   62  A    between atoms: _141  and  _142
REMARK   63  A    between atoms: _144  and  _146
REMARK   64  A    between atoms: _146  and  _147
REMARK   65  A    between atoms: _146  and  _149
REMARK   66  A    between atoms: _149  and  _150
REMARK   67  A    between atoms: _153  and  _155
REMARK   68  A    between atoms: _155  and  _156
REMARK   69  A    between atoms: _158  and  _160
REMARK   70  A    between atoms: _160  and  _161
REMARK   71  A    between atoms: _163  and  _165
REMARK   72  A    between atoms: _165  and  _166
REMARK   73  A    between atoms: _165  and  _168
REMARK   74  A    between atoms: _171  and  _173
REMARK   75  A    between atoms: _173  and  _174
REMARK   76  A    between atoms: _173  and  _176
REMARK   77  A    between atoms: _179  and  _181
REMARK   78  A    between atoms: _181  and  _182
REMARK   79  A    between atoms: _181  and  _184
REMARK   80  A    between atoms: _184  and  _185
REMARK   81  A    between atoms: _188  and  _190
REMARK   82  A    between atoms: _190  and  _191
REMARK   83  A    between atoms: _190  and  _193
REMARK   84  A    between atoms: _193  and  _194
REMARK   85  A    between atoms: _198  and  _199
REMARK   86  A    between atoms: _204  and  _206
REMARK   87  A    between atoms: _206  and  _207
REMARK   88  A    between atoms: _210  and  _212
REMARK   89  A    between atoms: _212  and  _213
REMARK   90  A    between atoms: _212  and  _215
REMARK   91  A    between atoms: _215  and  _216
REMARK   92  A    between atoms: _221  and  _223
REMARK   93  A    between atoms: _223  and  _224
REMARK   94  A    between atoms: _223  and  _226
REMARK   95  A    between atoms: _226  and  _227
REMARK   96  A    between atoms: _230  and  _232
REMARK   97  A    between atoms: _232  and  _233
REMARK   98  A    between atoms: _232  and  _235
REMARK   99  A    between atoms: _235  and  _236
REMARK  100  A    between atoms: _239  and  _241
REMARK  101  A    between atoms: _241  and  _242
REMARK  102  A    between atoms: _244  and  _246
REMARK  103  A    between atoms: _246  and  _247
REMARK  104  A    between atoms: _246  and  _249
REMARK  105  A    between atoms: _249  and  _250
REMARK  106  A    between atoms: _250  and  _251
REMARK  107  A    between atoms: _251  and  _252
REMARK  108  A    between atoms: _261  and  _263
REMARK  109  A    between atoms: _263  and  _264
REMARK  110  A    between atoms: _263  and  _266
REMARK  111  A    between atoms: _266  and  _267
REMARK  112  A    between atoms: _272  and  _274
REMARK  113  A    between atoms: _274  and  _275
REMARK  114  A    between atoms: _274  and  _277
REMARK  115  A    between atoms: _277  and  _278
REMARK  116  A    between atoms: _278  and  _279
REMARK  117  A    between atoms: _279  and  _280
REMARK  118  A    between atoms: _289  and  _291
REMARK  119  A    between atoms: _291  and  _292
REMARK  120  A    between atoms: _291  and  _294
REMARK  121  A    between atoms: _294  and  _295
REMARK  122  A    between atoms: _298  and  _300
REMARK  123  A    between atoms: _300  and  _301
REMARK  124  A    between atoms: _300  and  _303
REMARK  125  A    between atoms: _303  and  _304
REMARK  126  A    between atoms: _307  and  _309
REMARK  127  A    between atoms: _309  and  _310
REMARK  128  A    between atoms: _309  and  _312
REMARK  129  A    between atoms: _312  and  _313
REMARK  130  A    between atoms: _316  and  _318
REMARK  131  A    between atoms: _318  and  _319
REMARK  132  A    between atoms: _318  and  _321
REMARK  133  A    between atoms: _321  and  _322
REMARK  134  A    between atoms: _325  and  _327
REMARK  135  A    between atoms: _327  and  _328
REMARK  136  A    between atoms: _330  and  _332
REMARK  137  A    between atoms: _332  and  _333
REMARK  138  A    between atoms: _336  and  _338
REMARK  139  A    between atoms: _338  and  _339
REMARK  140  A    between atoms: _338  and  _341
REMARK  141  A    between atoms: _341  and  _342
REMARK  142  A    between atoms: _345  and  _347
REMARK  143  A    between atoms: _347  and  _348
REMARK  144  A    between atoms: _347  and  _350
REMARK  145  A    between atoms: _350  and  _351
REMARK  146  A    between atoms: _354  and  _356
REMARK  147  A    between atoms: _356  and  _357
REMARK  148  A    between atoms: _356  and  _359
REMARK  149  A    between atoms: _359  and  _360
REMARK  150  A    between atoms: _363  and  _365
REMARK  151  A    between atoms: _365  and  _366
REMARK  152  A    between atoms: _365  and  _368
REMARK  153  A    between atoms: _371  and  _373
REMARK  154  A    between atoms: _373  and  _374
REMARK  155  A    between atoms: _373  and  _376
REMARK  156  A    between atoms: _376  and  _377
REMARK  157  A    between atoms: _380  and  _382
REMARK  158  A    between atoms: _382  and  _383
REMARK  159  A    between atoms: _382  and  _385
REMARK  160  A    between atoms: _385  and  _386
REMARK  161  A    between atoms: _386  and  _387
REMARK  162  A    between atoms: _387  and  _388
REMARK  163  A    between atoms: _388  and  _389
REMARK  164  A    between atoms: _393  and  _395
REMARK  165  A    between atoms: _395  and  _396
REMARK  166  A    between atoms: _395  and  _398
REMARK  167  A    between atoms: _398  and  _399
REMARK  168  A    between atoms: _399  and  _400
REMARK  169  A    between atoms: _402  and  _404
REMARK  170  A    between atoms: _404  and  _405
REMARK  171  A    between atoms: _404  and  _407
REMARK  172  A    between atoms: _407  and  _408
REMARK  173  A    between atoms: _411  and  _413
REMARK  174  A    between atoms: _413  and  _414
REMARK  175  A    between atoms: _413  and  _416
REMARK  176  A    between atoms: _419  and  _421
REMARK  177  A    between atoms: _421  and  _422
REMARK  178  A    between atoms: _424  and  _426
REMARK  179  A    between atoms: _426  and  _427
REMARK  180  A    between atoms: _426  and  _429
REMARK  181  A    between atoms: _429  and  _430
REMARK  182  A    between atoms: _433  and  _435
REMARK  183  A    between atoms: _435  and  _436
REMARK  184  A    between atoms: _438  and  _440
REMARK  185  A    between atoms: _440  and  _441
REMARK  186  A    between atoms: _443  and  _445
REMARK  187  A    between atoms: _445  and  _446
REMARK  188  A    between atoms: _445  and  _448
REMARK  189  A    between atoms: _451  and  _453
REMARK  190  A    between atoms: _453  and  _454
REMARK  191  A    between atoms: _453  and  _456
REMARK  192  A    between atoms: _459  and  _461
REMARK  193  A    between atoms: _461  and  _462
REMARK  194  A    between atoms: _461  and  _464
REMARK  195  A    between atoms: _464  and  _465
REMARK  196  A    between atoms: _469  and  _470
REMARK  197  A    between atoms: _475  and  _477
REMARK  198  A    between atoms: _477  and  _478
REMARK  199  A    between atoms: _477  and  _480
REMARK  200  A    between atoms: _480  and  _481
REMARK  201  A    between atoms: _485  and  _486
REMARK  202  A    between atoms: _491  and  _493
REMARK  203  A    between atoms: _493  and  _494
REMARK  204  A    between atoms: _497  and  _499
REMARK  205  A    between atoms: _499  and  _500
REMARK  206  A    between atoms: _499  and  _502
REMARK  207  A    between atoms: _502  and  _503
REMARK  208  A    between atoms: _508  and  _510
REMARK  209  A    between atoms: _510  and  _511
REMARK  210  A    between atoms: _510  and  _513
REMARK  211  A    between atoms: _513  and  _514
REMARK  212  A    between atoms: _517  and  _519
REMARK  213  A    between atoms: _519  and  _520
REMARK  214  A    between atoms: _519  and  _522
REMARK  215  A    between atoms: _522  and  _523
REMARK  216  A    between atoms: _526  and  _528
REMARK  217  A    between atoms: _528  and  _529
REMARK  218  A    between atoms: _531  and  _533
REMARK  219  A    between atoms: _533  and  _534
REMARK  220  A    between atoms: _533  and  _536
REMARK  221  A    between atoms: _536  and  _537
REMARK  222  A    between atoms: _537  and  _538
REMARK  223  A    between atoms: _538  and  _539
REMARK  224  A    between atoms: _548  and  _550
REMARK  225  A    between atoms: _550  and  _551
REMARK  226  A    between atoms: _550  and  _553
REMARK  227  A    between atoms: _553  and  _554
REMARK                            x       y       z     vdW  Elec       q    Type
REMARK                         _______ _______ _______ _____ _____    ______ ____
ROOT
ATOM      1  C   ILE A   3      20.434  31.943  -8.859  0.00  0.00    +0.241 C 
ATOM      2  O   ILE A   3      21.613  31.622  -8.666  0.00  0.00    -0.273 OA
ATOM      3  N   VAL A   4      20.061  32.790  -9.811  0.00  0.00    -0.297 N 
ATOM      4  H   VAL A   4      19.051  32.914 -10.024  0.00  0.00    +0.150 HD
ENDROOT
BRANCH   3   5
ATOM      5  CA  VAL A   4      21.049  33.543 -10.556  0.00  0.00    +0.149 C 
BRANCH   5   6
ATOM      6  C   VAL A   4      20.839  35.022 -10.305  0.00  0.00    +0.241 C 
ATOM      7  O   VAL A   4      19.713  35.482 -10.109  0.00  0.00    -0.273 OA
ATOM      8  N   GLY A   5      21.941  35.753 -10.231  0.00  0.00    -0.295 N 
ATOM      9  H   GLY A   5      22.868  35.282 -10.216  0.00  0.00    +0.150 HD
BRANCH   8  10
ATOM     10  CA  GLY A   5      21.875  37.210 -10.170  0.00  0.00    +0.176 C 
BRANCH  10  11
ATOM     11  C   GLY A   5      22.927  37.776 -11.084  0.00  0.00    +0.243 C 
ATOM     12  N   ILE A   6      23.160  39.078 -10.997  0.00  0.00    -0.297 N 
ATOM     13  H   ILE A   6      22.691  39.640 -10.258  0.00  0.00    +0.150 HD
ATOM     14  O   GLY A   5      23.573  37.032 -11.828  0.00  0.00    -0.273 OA
BRANCH  12  15
ATOM     15  CA  ILE A   6      24.071  39.726 -11.932  0.00  0.00    +0.149 C 
BRANCH  15  16
ATOM     16  C   ILE A   6      25.454  39.079 -11.905  0.00  0.00    +0.241 C 
ATOM     17  N   GLY A   7      25.883  38.616 -10.733  0.00  0.00    -0.295 N 
ATOM     18  H   GLY A   7      25.233  38.615  -9.921  0.00  0.00    +0.150 HD
ATOM     19  O   ILE A   6      26.093  38.955 -12.945  0.00  0.00    -0.273 OA
BRANCH  17  20
ATOM     20  CA  GLY A   7      27.255  38.104 -10.555  0.00  0.00    +0.176 C 
BRANCH  20  21
ATOM     21  C   GLY A   7      27.411  36.589 -10.633  0.00  0.00    +0.243 C 
ATOM     22  O   GLY A   7      28.451  36.045 -10.271  0.00  0.00    -0.273 OA
ATOM     23  N   GLY A   8      26.372  35.912 -11.107  0.00  0.00    -0.296 N 
ATOM     24  H   GLY A   8      25.508  36.436 -11.355  0.00  0.00    +0.150 HD
BRANCH  23  25
ATOM     25  CA  GLY A   8      26.389  34.463 -11.296  0.00  0.00    +0.163 C 
BRANCH  25  26
ATOM     26  C   GLY A   8      25.383  33.707 -10.458  0.00  0.00    +0.229 C 
ATOM     27  O   GLY A   8      24.425  34.287  -9.949  0.00  0.00    -0.286 OA
ENDBRANCH  25  26
ENDBRANCH  23  25
ENDBRANCH  20  21
ENDBRANCH  17  20
ENDBRANCH  15  16
BRANCH  15  28
ATOM     28  CB  ILE A   6      24.154  41.257 -11.700  0.00  0.00    +0.027 C 
ATOM     29  CG2 ILE A   6      25.577  41.703 -11.413  0.00  0.00    +0.002 C 
BRANCH  28  30
ATOM     30  CG1 ILE A   6      23.649  41.996 -12.940  0.00  0.00    +0.002 C 
ATOM     31  CD1 ILE A   6      23.327  43.447 -12.690  0.00  0.00    +0.000 C 
ENDBRANCH  28  30
ENDBRANCH  15  28
ENDBRANCH  12  15
ENDBRANCH  10  11
ENDBRANCH   8  10
ENDBRANCH   5   6
BRANCH   5  32
ATOM     32  CB  VAL A   4      21.039  33.203 -12.083  0.00  0.00    +0.027 C 
ATOM     33  CG2 VAL A   4      19.820  33.741 -12.760  0.00  0.00    +0.002 C 
ATOM     34  CG1 VAL A   4      22.302  33.719 -12.761  0.00  0.00    +0.002 C 
ENDBRANCH   5  32
ENDBRANCH   3   5
BRANCH   1  35
ATOM     35  CA  ILE A   3      19.306  31.308  -8.055  0.00  0.00    +0.149 C 
BRANCH  35  37
ATOM     36  C   MET A   2      19.314  28.955  -7.440  0.00  0.00    +0.241 C 
ATOM     37  N   ILE A   3      19.829  30.170  -7.306  0.00  0.00    -0.297 N 
ATOM     38  H   ILE A   3      20.624  30.315  -6.652  0.00  0.00    +0.150 HD
ATOM     39  O   MET A   2      18.302  28.725  -8.099  0.00  0.00    -0.273 OA
BRANCH  36  40
ATOM     40  CA  MET A   2      20.057  27.831  -6.736  0.00  0.00    +0.149 C 
BRANCH  40  43
ATOM     41  C   LYS A   1      19.104  26.922  -4.680  0.00  0.00    +0.238 C 
ATOM     42  O   LYS A   1      19.961  27.447  -3.975  0.00  0.00    -0.274 OA
ATOM     43  N   MET A   2      19.132  26.964  -6.007  0.00  0.00    -0.297 N 
ATOM     44  H   MET A   2      18.476  26.362  -6.544  0.00  0.00    +0.150 HD
BRANCH  41  45
ATOM     45  CA  LYS A   1      17.974  26.116  -4.056  0.00  0.00    +0.145 C 
BRANCH  45  46
ATOM     46  N   LYS A   1      18.432  25.594  -2.781  0.00  0.00    -0.238 NA
ATOM     47  H   LYS A   1      18.952  26.221  -2.134  0.00  0.00    +0.142 HD
ENDBRANCH  45  46
BRANCH  45  48
ATOM     48  CB  LYS A   1      16.738  26.991  -3.844  0.00  0.00    +0.026 C 
BRANCH  48  49
ATOM     49  CG  LYS A   1      16.063  27.452  -5.121  0.00  0.00    -0.000 C 
BRANCH  49  50
ATOM     50  CD  LYS A   1      14.980  28.496  -4.828  0.00  0.00    -0.024 C 
BRANCH  50  51
ATOM     51  CE  LYS A   1      14.504  29.205  -6.090  0.00  0.00    -0.086 C 
BRANCH  51  52
ATOM     52  NZ  LYS A   1      13.690  28.314  -6.963  0.00  0.00    +0.380 N 
ATOM     53  HZ1 LYS A   1      12.853  27.988  -6.439  0.00  0.00    -0.089 HD
ATOM     54  HZ2 LYS A   1      14.262  27.494  -7.249  0.00  0.00    -0.089 HD
ATOM     55  HZ3 LYS A   1      13.389  28.840  -7.808  0.00  0.00    -0.089 HD
ENDBRANCH  51  52
ENDBRANCH  50  51
ENDBRANCH  49  50
ENDBRANCH  48  49
ENDBRANCH  45  48
ENDBRANCH  41  45
ENDBRANCH  40  43
BRANCH  40  56
ATOM     56  CB  MET A   2      20.833  27.022  -7.767  0.00  0.00    +0.041 C 
BRANCH  56  57
ATOM     57  CG  MET A   2      22.030  26.315  -7.195  0.00  0.00    +0.060 C 
BRANCH  57  58
ATOM     58  SD  MET A   2      23.557  27.167  -7.613  0.00  0.00    -0.139 S 
ATOM     59  CE  MET A   2      23.698  26.745  -9.353  0.00  0.00    +0.069 C 
ENDBRANCH  57  58
ENDBRANCH  56  57
ENDBRANCH  40  56
ENDBRANCH  36  40
ENDBRANCH  35  37
BRANCH  35  60
ATOM     60  CB  ILE A   3      18.675  32.381  -7.125  0.00  0.00    +0.027 C 
ATOM     61  CG2 ILE A   3      17.386  31.846  -6.527  0.00  0.00    +0.002 C 
BRANCH  60  62
ATOM     62  CG1 ILE A   3      19.671  32.773  -6.029  0.00  0.00    +0.002 C 
ATOM     63  CD1 ILE A   3      19.282  34.001  -5.228  0.00  0.00    +0.000 C 
ENDBRANCH  60  62
ENDBRANCH  35  60
ENDBRANCH   1  35
TORSDOF 29
REMARK  Name = ../refined-set-2016/3ekt/3ekt_pocket.pdb
REMARK  227 active torsions:
REMARK  status: ('A' for Active; 'I' for Inactive)
REMARK    1  A    between atoms: _1  and  _3
REMARK    2  A    between atoms: _3  and  _4
REMARK    3  A    between atoms: _3  and  _6
REMARK    4  A    between atoms: _6  and  _7
REMARK    5  A    between atoms: _7  and  _8
REMARK    6  A    between atoms: _8  and  _9
REMARK    7  A    between atoms: _18  and  _20
REMARK    8  A    between atoms: _20  and  _21
REMARK    9  A    between atoms: _20  and  _23
REMARK   10  A    between atoms: _23  and  _24
REMARK   11  A    between atoms: _27  and  _29
REMARK   12  A    between atoms: _29  and  _30
REMARK   13  A    between atoms: _29  and  _32
REMARK   14  A    between atoms: _32  and  _33
REMARK   15  A    between atoms: _36  and  _38
REMARK   16  A    between atoms: _38  and  _39
REMARK   17  A    between atoms: _38  and  _41
REMARK   18  A    between atoms: _41  and  _42
REMARK   19  A    between atoms: _45  and  _47
REMARK   20  A    between atoms: _47  and  _48
REMARK   21  A    between atoms: _47  and  _50
REMARK   22  A    between atoms: _50  and  _51
REMARK   23  A    between atoms: _54  and  _56
REMARK   24  A    between atoms: _56  and  _57
REMARK   25  A    between atoms: _59  and  _61
REMARK   26  A    between atoms: _61  and  _62
REMARK   27  A    between atoms: _65  and  _67
REMARK   28  A    between atoms: _67  and  _68
REMARK   29  A    between atoms: _67  and  _70
REMARK   30  A    between atoms: _70  and  _71
REMARK   31  A    between atoms: _74  and  _76
REMARK   32  A    between atoms: _76  and  _77
REMARK   33  A    between atoms: _76  and  _79
REMARK   34  A    between atoms: _79  and  _80
REMARK   35  A    between atoms: _83  and  _85
REMARK   36  A    between atoms: _85  and  _86
REMARK   37  A    between atoms: _85  and  _88
REMARK   38  A    between atoms: _88  and  _89
REMARK   39  A    between atoms: _92  and  _94
REMARK   40  A    between atoms: _94  and  _95
REMARK   41  A    between atoms: _94  and  _97
REMARK   42  A    between atoms: _100  and  _102
REMARK   43  A    between atoms: _102  and  _103
REMARK   44  A    between atoms: _102  and  _105
REMARK   45  A    between atoms: _105  and  _106
REMARK   46  A    between atoms: _106  and  _107
REMARK   47  A    between atoms: _107  and  _108
REMARK   48  A    between atoms: _108  and  _109
REMARK   49  A    between atoms: _113  and  _115
REMARK   50  A    between atoms: _115  and  _116
REMARK   51  A    between atoms: _115  and  _118
REMARK   52  A    between atoms: _118  and  _119
REMARK   53  A    between atoms: _119  and  _120
REMARK   54  A    between atoms: _122  and  _124
REMARK   55  A    between atoms: _124  and  _125
REMARK   56  A    between atoms: _124  and  _127
REMARK   57  A    between atoms: _127  and  _128
REMARK   58  A    between atoms: _131  and  _133
REMARK   59  A    between atoms: _133  and  _134
REMARK   60  A    between atoms: _133  and  _136
REMARK   61  A    between atoms: _139  and  _141
REMARK   62  A    between atoms: _141  and  _142
REMARK   63  A    between atoms: _144  and  _146
REMARK   64  A    between atoms: _146  and  _147
REMARK   65  A    between atoms: _146  and  _149
REMARK   66  A    between atoms: _149  and  _150
REMARK   67  A    between atoms: _153  and  _155
REMARK   68  A    between atoms: _155  and  _156
REMARK   69  A    between atoms: _158  and  _160
REMARK   70  A    between atoms: _160  and  _161
REMARK   71  A    between atoms: _163  and  _165
REMARK   72  A    between atoms: _165  and  _166
REMARK   73  A    between atoms: _165  and  _168
REMARK   74  A    between atoms: _171  and  _173
REMARK   75  A    between atoms: _173  and  _174
REMARK   76  A    between atoms: _173  and  _176
REMARK   77  A    between atoms: _179  and  _181
REMARK   78  A    between atoms: _181  and  _182
REMARK   79  A    between atoms: _181  and  _184
REMARK   80  A    between atoms: _184  and  _185
REMARK   81  A    between atoms: _188  and  _190
REMARK   82  A    between atoms: _190  and  _191
REMARK   83  A    between atoms: _190  and  _193
REMARK   84  A    between atoms: _193  and  _194
REMARK   85  A    between atoms: _198  and  _199
REMARK   86  A    between atoms: _204  and  _206
REMARK   87  A    between atoms: _206  and  _207
REMARK   88  A    between atoms: _210  and  _212
REMARK   89  A    between atoms: _212  and  _213
REMARK   90  A    between atoms: _212  and  _215
REMARK   91  A    between atoms: _215  and  _216
REMARK   92  A    between atoms: _221  and  _223
REMARK   93  A    between atoms: _223  and  _224
REMARK   94  A    between atoms: _223  and  _226
REMARK   95  A    between atoms: _226  and  _227
REMARK   96  A    between atoms: _230  and  _232
REMARK   97  A    between atoms: _232  and  _233
REMARK   98  A    between atoms: _232  and  _235
REMARK   99  A    between atoms: _235  and  _236
REMARK  100  A    between atoms: _239  and  _241
REMARK  101  A    between atoms: _241  and  _242
REMARK  102  A    between atoms: _244  and  _246
REMARK  103  A    between atoms: _246  and  _247
REMARK  104  A    between atoms: _246  and  _249
REMARK  105  A    between atoms: _249  and  _250
REMARK  106  A    between atoms: _250  and  _251
REMARK  107  A    between atoms: _251  and  _252
REMARK  108  A    between atoms: _261  and  _263
REMARK  109  A    between atoms: _263  and  _264
REMARK  110  A    between atoms: _263  and  _266
REMARK  111  A    between atoms: _266  and  _267
REMARK  112  A    between atoms: _272  and  _274
REMARK  113  A    between atoms: _274  and  _275
REMARK  114  A    between atoms: _274  and  _277
REMARK  115  A    between atoms: _277  and  _278
REMARK  116  A    between atoms: _278  and  _279
REMARK  117  A    between atoms: _279  and  _280
REMARK  118  A    between atoms: _289  and  _291
REMARK  119  A    between atoms: _291  and  _292
REMARK  120  A    between atoms: _291  and  _294
REMARK  121  A    between atoms: _294  and  _295
REMARK  122  A    between atoms: _298  and  _300
REMARK  123  A    between atoms: _300  and  _301
REMARK  124  A    between atoms: _300  and  _303
REMARK  125  A    between atoms: _303  and  _304
REMARK  126  A    between atoms: _307  and  _309
REMARK  127  A    between atoms: _309  and  _310
REMARK  128  A    between atoms: _309  and  _312
REMARK  129  A    between atoms: _312  and  _313
REMARK  130  A    between atoms: _316  and  _318
REMARK  131  A    between atoms: _318  and  _319
REMARK  132  A    between atoms: _318  and  _321
REMARK  133  A    between atoms: _321  and  _322
REMARK  134  A    between atoms: _325  and  _327
REMARK  135  A    between atoms: _327  and  _328
REMARK  136  A    between atoms: _330  and  _332
REMARK  137  A    between atoms: _332  and  _333
REMARK  138  A    between atoms: _336  and  _338
REMARK  139  A    between atoms: _338  and  _339
REMARK  140  A    between atoms: _338  and  _341
REMARK  141  A    between atoms: _341  and  _342
REMARK  142  A    between atoms: _345  and  _347
REMARK  143  A    between atoms: _347  and  _348
REMARK  144  A    between atoms: _347  and  _350
REMARK  145  A    between atoms: _350  and  _351
REMARK  146  A    between atoms: _354  and  _356
REMARK  147  A    between atoms: _356  and  _357
REMARK  148  A    between atoms: _356  and  _359
REMARK  149  A    between atoms: _359  and  _360
REMARK  150  A    between atoms: _363  and  _365
REMARK  151  A    between atoms: _365  and  _366
REMARK  152  A    between atoms: _365  and  _368
REMARK  153  A    between atoms: _371  and  _373
REMARK  154  A    between atoms: _373  and  _374
REMARK  155  A    between atoms: _373  and  _376
REMARK  156  A    between atoms: _376  and  _377
REMARK  157  A    between atoms: _380  and  _382
REMARK  158  A    between atoms: _382  and  _383
REMARK  159  A    between atoms: _382  and  _385
REMARK  160  A    between atoms: _385  and  _386
REMARK  161  A    between atoms: _386  and  _387
REMARK  162  A    between atoms: _387  and  _388
REMARK  163  A    between atoms: _388  and  _389
REMARK  164  A    between atoms: _393  and  _395
REMARK  165  A    between atoms: _395  and  _396
REMARK  166  A    between atoms: _395  and  _398
REMARK  167  A    between atoms: _398  and  _399
REMARK  168  A    between atoms: _399  and  _400
REMARK  169  A    between atoms: _402  and  _404
REMARK  170  A    between atoms: _404  and  _405
REMARK  171  A    between atoms: _404  and  _407
REMARK  172  A    between atoms: _407  and  _408
REMARK  173  A    between atoms: _411  and  _413
REMARK  174  A    between atoms: _413  and  _414
REMARK  175  A    between atoms: _413  and  _416
REMARK  176  A    between atoms: _419  and  _421
REMARK  177  A    between atoms: _421  and  _422
REMARK  178  A    between atoms: _424  and  _426
REMARK  179  A    between atoms: _426  and  _427
REMARK  180  A    between atoms: _426  and  _429
REMARK  181  A    between atoms: _429  and  _430
REMARK  182  A    between atoms: _433  and  _435
REMARK  183  A    between atoms: _435  and  _436
REMARK  184  A    between atoms: _438  and  _440
REMARK  185  A    between atoms: _440  and  _441
REMARK  186  A    between atoms: _443  and  _445
REMARK  187  A    between atoms: _445  and  _446
REMARK  188  A    between atoms: _445  and  _448
REMARK  189  A    between atoms: _451  and  _453
REMARK  190  A    between atoms: _453  and  _454
REMARK  191  A    between atoms: _453  and  _456
REMARK  192  A    between atoms: _459  and  _461
REMARK  193  A    between atoms: _461  and  _462
REMARK  194  A    between atoms: _461  and  _464
REMARK  195  A    between atoms: _464  and  _465
REMARK  196  A    between atoms: _469  and  _470
REMARK  197  A    between atoms: _475  and  _477
REMARK  198  A    between atoms: _477  and  _478
REMARK  199  A    between atoms: _477  and  _480
REMARK  200  A    between atoms: _480  and  _481
REMARK  201  A    between atoms: _485  and  _486
REMARK  202  A    between atoms: _491  and  _493
REMARK  203  A    between atoms: _493  and  _494
REMARK  204  A    between atoms: _497  and  _499
REMARK  205  A    between atoms: _499  and  _500
REMARK  206  A    between atoms: _499  and  _502
REMARK  207  A    between atoms: _502  and  _503
REMARK  208  A    between atoms: _508  and  _510
REMARK  209  A    between atoms: _510  and  _511
REMARK  210  A    between atoms: _510  and  _513
REMARK  211  A    between atoms: _513  and  _514
REMARK  212  A    between atoms: _517  and  _519
REMARK  213  A    between atoms: _519  and  _520
REMARK  214  A    between atoms: _519  and  _522
REMARK  215  A    between atoms: _522  and  _523
REMARK  216  A    between atoms: _526  and  _528
REMARK  217  A    between atoms: _528  and  _529
REMARK  218  A    between atoms: _531  and  _533
REMARK  219  A    between atoms: _533  and  _534
REMARK  220  A    between atoms: _533  and  _536
REMARK  221  A    between atoms: _536  and  _537
REMARK  222  A    between atoms: _537  and  _538
REMARK  223  A    between atoms: _538  and  _539
REMARK  224  A    between atoms: _548  and  _550
REMARK  225  A    between atoms: _550  and  _551
REMARK  226  A    between atoms: _550  and  _553
REMARK  227  A    between atoms: _553  and  _554
REMARK                            x       y       z     vdW  Elec       q    Type
REMARK                         _______ _______ _______ _____ _____    ______ ____
ROOT
ATOM      1  CA  VAL A   1      24.265  31.579  -5.817  0.00  0.00    +0.133 C 
ENDROOT
BRANCH   1   2
ATOM      2  CB  VAL A   1      23.944  32.952  -5.229  0.00  0.00    +0.023 C 
ATOM      3  CG2 VAL A   1      24.061  32.930  -3.711  0.00  0.00    +0.002 C 
ATOM      4  CG1 VAL A   1      24.876  34.006  -5.826  0.00  0.00    +0.002 C 
ENDBRANCH   1   2
BRANCH   1   5
ATOM      5  N   VAL A   1      24.069  31.568  -7.259  0.00  0.00    -0.239 NA
ATOM      6  H   VAL A   1      23.101  31.527  -7.637  0.00  0.00    +0.142 HD
ENDBRANCH   1   5
BRANCH   1   7
ATOM      7  C   VAL A   1      23.399  30.512  -5.155  0.00  0.00    +0.224 C 
ATOM      8  O   VAL A   1      22.207  30.383  -5.448  0.00  0.00    -0.287 OA
ENDBRANCH   1   7
TORSDOF 3
REMARK  Name = ../refined-set-2016/3ekt/3ekt_pocket.pdb
REMARK  227 active torsions:
REMARK  status: ('A' for Active; 'I' for Inactive)
REMARK    1  A    between atoms: _1  and  _3
REMARK    2  A    between atoms: _3  and  _4
REMARK    3  A    between atoms: _3  and  _6
REMARK    4  A    between atoms: _6  and  _7
REMARK    5  A    between atoms: _7  and  _8
REMARK    6  A    between atoms: _8  and  _9
REMARK    7  A    between atoms: _18  and  _20
REMARK    8  A    between atoms: _20  and  _21
REMARK    9  A    between atoms: _20  and  _23
REMARK   10  A    between atoms: _23  and  _24
REMARK   11  A    between atoms: _27  and  _29
REMARK   12  A    between atoms: _29  and  _30
REMARK   13  A    between atoms: _29  and  _32
REMARK   14  A    between atoms: _32  and  _33
REMARK   15  A    between atoms: _36  and  _38
REMARK   16  A    between atoms: _38  and  _39
REMARK   17  A    between atoms: _38  and  _41
REMARK   18  A    between atoms: _41  and  _42
REMARK   19  A    between atoms: _45  and  _47
REMARK   20  A    between atoms: _47  and  _48
REMARK   21  A    between atoms: _47  and  _50
REMARK   22  A    between atoms: _50  and  _51
REMARK   23  A    between atoms: _54  and  _56
REMARK   24  A    between atoms: _56  and  _57
REMARK   25  A    between atoms: _59  and  _61
REMARK   26  A    between atoms: _61  and  _62
REMARK   27  A    between atoms: _65  and  _67
REMARK   28  A    between atoms: _67  and  _68
REMARK   29  A    between atoms: _67  and  _70
REMARK   30  A    between atoms: _70  and  _71
REMARK   31  A    between atoms: _74  and  _76
REMARK   32  A    between atoms: _76  and  _77
REMARK   33  A    between atoms: _76  and  _79
REMARK   34  A    between atoms: _79  and  _80
REMARK   35  A    between atoms: _83  and  _85
REMARK   36  A    between atoms: _85  and  _86
REMARK   37  A    between atoms: _85  and  _88
REMARK   38  A    between atoms: _88  and  _89
REMARK   39  A    between atoms: _92  and  _94
REMARK   40  A    between atoms: _94  and  _95
REMARK   41  A    between atoms: _94  and  _97
REMARK   42  A    between atoms: _100  and  _102
REMARK   43  A    between atoms: _102  and  _103
REMARK   44  A    between atoms: _102  and  _105
REMARK   45  A    between atoms: _105  and  _106
REMARK   46  A    between atoms: _106  and  _107
REMARK   47  A    between atoms: _107  and  _108
REMARK   48  A    between atoms: _108  and  _109
REMARK   49  A    between atoms: _113  and  _115
REMARK   50  A    between atoms: _115  and  _116
REMARK   51  A    between atoms: _115  and  _118
REMARK   52  A    between atoms: _118  and  _119
REMARK   53  A    between atoms: _119  and  _120
REMARK   54  A    between atoms: _122  and  _124
REMARK   55  A    between atoms: _124  and  _125
REMARK   56  A    between atoms: _124  and  _127
REMARK   57  A    between atoms: _127  and  _128
REMARK   58  A    between atoms: _131  and  _133
REMARK   59  A    between atoms: _133  and  _134
REMARK   60  A    between atoms: _133  and  _136
REMARK   61  A    between atoms: _139  and  _141
REMARK   62  A    between atoms: _141  and  _142
REMARK   63  A    between atoms: _144  and  _146
REMARK   64  A    between atoms: _146  and  _147
REMARK   65  A    between atoms: _146  and  _149
REMARK   66  A    between atoms: _149  and  _150
REMARK   67  A    between atoms: _153  and  _155
REMARK   68  A    between atoms: _155  and  _156
REMARK   69  A    between atoms: _158  and  _160
REMARK   70  A    between atoms: _160  and  _161
REMARK   71  A    between atoms: _163  and  _165
REMARK   72  A    between atoms: _165  and  _166
REMARK   73  A    between atoms: _165  and  _168
REMARK   74  A    between atoms: _171  and  _173
REMARK   75  A    between atoms: _173  and  _174
REMARK   76  A    between atoms: _173  and  _176
REMARK   77  A    between atoms: _179  and  _181
REMARK   78  A    between atoms: _181  and  _182
REMARK   79  A    between atoms: _181  and  _184
REMARK   80  A    between atoms: _184  and  _185
REMARK   81  A    between atoms: _188  and  _190
REMARK   82  A    between atoms: _190  and  _191
REMARK   83  A    between atoms: _190  and  _193
REMARK   84  A    between atoms: _193  and  _194
REMARK   85  A    between atoms: _198  and  _199
REMARK   86  A    between atoms: _204  and  _206
REMARK   87  A    between atoms: _206  and  _207
REMARK   88  A    between atoms: _210  and  _212
REMARK   89  A    between atoms: _212  and  _213
REMARK   90  A    between atoms: _212  and  _215
REMARK   91  A    between atoms: _215  and  _216
REMARK   92  A    between atoms: _221  and  _223
REMARK   93  A    between atoms: _223  and  _224
REMARK   94  A    between atoms: _223  and  _226
REMARK   95  A    between atoms: _226  and  _227
REMARK   96  A    between atoms: _230  and  _232
REMARK   97  A    between atoms: _232  and  _233
REMARK   98  A    between atoms: _232  and  _235
REMARK   99  A    between atoms: _235  and  _236
REMARK  100  A    between atoms: _239  and  _241
REMARK  101  A    between atoms: _241  and  _242
REMARK  102  A    between atoms: _244  and  _246
REMARK  103  A    between atoms: _246  and  _247
REMARK  104  A    between atoms: _246  and  _249
REMARK  105  A    between atoms: _249  and  _250
REMARK  106  A    between atoms: _250  and  _251
REMARK  107  A    between atoms: _251  and  _252
REMARK  108  A    between atoms: _261  and  _263
REMARK  109  A    between atoms: _263  and  _264
REMARK  110  A    between atoms: _263  and  _266
REMARK  111  A    between atoms: _266  and  _267
REMARK  112  A    between atoms: _272  and  _274
REMARK  113  A    between atoms: _274  and  _275
REMARK  114  A    between atoms: _274  and  _277
REMARK  115  A    between atoms: _277  and  _278
REMARK  116  A    between atoms: _278  and  _279
REMARK  117  A    between atoms: _279  and  _280
REMARK  118  A    between atoms: _289  and  _291
REMARK  119  A    between atoms: _291  and  _292
REMARK  120  A    between atoms: _291  and  _294
REMARK  121  A    between atoms: _294  and  _295
REMARK  122  A    between atoms: _298  and  _300
REMARK  123  A    between atoms: _300  and  _301
REMARK  124  A    between atoms: _300  and  _303
REMARK  125  A    between atoms: _303  and  _304
REMARK  126  A    between atoms: _307  and  _309
REMARK  127  A    between atoms: _309  and  _310
REMARK  128  A    between atoms: _309  and  _312
REMARK  129  A    between atoms: _312  and  _313
REMARK  130  A    between atoms: _316  and  _318
REMARK  131  A    between atoms: _318  and  _319
REMARK  132  A    between atoms: _318  and  _321
REMARK  133  A    between atoms: _321  and  _322
REMARK  134  A    between atoms: _325  and  _327
REMARK  135  A    between atoms: _327  and  _328
REMARK  136  A    between atoms: _330  and  _332
REMARK  137  A    between atoms: _332  and  _333
REMARK  138  A    between atoms: _336  and  _338
REMARK  139  A    between atoms: _338  and  _339
REMARK  140  A    between atoms: _338  and  _341
REMARK  141  A    between atoms: _341  and  _342
REMARK  142  A    between atoms: _345  and  _347
REMARK  143  A    between atoms: _347  and  _348
REMARK  144  A    between atoms: _347  and  _350
REMARK  145  A    between atoms: _350  and  _351
REMARK  146  A    between atoms: _354  and  _356
REMARK  147  A    between atoms: _356  and  _357
REMARK  148  A    between atoms: _356  and  _359
REMARK  149  A    between atoms: _359  and  _360
REMARK  150  A    between atoms: _363  and  _365
REMARK  151  A    between atoms: _365  and  _366
REMARK  152  A    between atoms: _365  and  _368
REMARK  153  A    between atoms: _371  and  _373
REMARK  154  A    between atoms: _373  and  _374
REMARK  155  A    between atoms: _373  and  _376
REMARK  156  A    between atoms: _376  and  _377
REMARK  157  A    between atoms: _380  and  _382
REMARK  158  A    between atoms: _382  and  _383
REMARK  159  A    between atoms: _382  and  _385
REMARK  160  A    between atoms: _385  and  _386
REMARK  161  A    between atoms: _386  and  _387
REMARK  162  A    between atoms: _387  and  _388
REMARK  163  A    between atoms: _388  and  _389
REMARK  164  A    between atoms: _393  and  _395
REMARK  165  A    between atoms: _395  and  _396
REMARK  166  A    between atoms: _395  and  _398
REMARK  167  A    between atoms: _398  and  _399
REMARK  168  A    between atoms: _399  and  _400
REMARK  169  A    between atoms: _402  and  _404
REMARK  170  A    between atoms: _404  and  _405
REMARK  171  A    between atoms: _404  and  _407
REMARK  172  A    between atoms: _407  and  _408
REMARK  173  A    between atoms: _411  and  _413
REMARK  174  A    between atoms: _413  and  _414
REMARK  175  A    between atoms: _413  and  _416
REMARK  176  A    between atoms: _419  and  _421
REMARK  177  A    between atoms: _421  and  _422
REMARK  178  A    between atoms: _424  and  _426
REMARK  179  A    between atoms: _426  and  _427
REMARK  180  A    between atoms: _426  and  _429
REMARK  181  A    between atoms: _429  and  _430
REMARK  182  A    between atoms: _433  and  _435
REMARK  183  A    between atoms: _435  and  _436
REMARK  184  A    between atoms: _438  and  _440
REMARK  185  A    between atoms: _440  and  _441
REMARK  186  A    between atoms: _443  and  _445
REMARK  187  A    between atoms: _445  and  _446
REMARK  188  A    between atoms: _445  and  _448
REMARK  189  A    between atoms: _451  and  _453
REMARK  190  A    between atoms: _453  and  _454
REMARK  191  A    between atoms: _453  and  _456
REMARK  192  A    between atoms: _459  and  _461
REMARK  193  A    between atoms: _461  and  _462
REMARK  194  A    between atoms: _461  and  _464
REMARK  195  A    between atoms: _464  and  _465
REMARK  196  A    between atoms: _469  and  _470
REMARK  197  A    between atoms: _475  and  _477
REMARK  198  A    between atoms: _477  and  _478
REMARK  199  A    between atoms: _477  and  _480
REMARK  200  A    between atoms: _480  and  _481
REMARK  201  A    between atoms: _485  and  _486
REMARK  202  A    between atoms: _491  and  _493
REMARK  203  A    between atoms: _493  and  _494
REMARK  204  A    between atoms: _497  and  _499
REMARK  205  A    between atoms: _499  and  _500
REMARK  206  A    between atoms: _499  and  _502
REMARK  207  A    between atoms: _502  and  _503
REMARK  208  A    between atoms: _508  and  _510
REMARK  209  A    between atoms: _510  and  _511
REMARK  210  A    between atoms: _510  and  _513
REMARK  211  A    between atoms: _513  and  _514
REMARK  212  A    between atoms: _517  and  _519
REMARK  213  A    between atoms: _519  and  _520
REMARK  214  A    between atoms: _519  and  _522
REMARK  215  A    between atoms: _522  and  _523
REMARK  216  A    between atoms: _526  and  _528
REMARK  217  A    between atoms: _528  and  _529
REMARK  218  A    between atoms: _531  and  _533
REMARK  219  A    between atoms: _533  and  _534
REMARK  220  A    between atoms: _533  and  _536
REMARK  221  A    between atoms: _536  and  _537
REMARK  222  A    between atoms: _537  and  _538
REMARK  223  A    between atoms: _538  and  _539
REMARK  224  A    between atoms: _548  and  _550
REMARK  225  A    between atoms: _550  and  _551
REMARK  226  A    between atoms: _550  and  _553
REMARK  227  A    between atoms: _553  and  _554
REMARK                            x       y       z     vdW  Elec       q    Type
REMARK                         _______ _______ _______ _____ _____    ______ ____
ROOT
ATOM      1  CA  VAL A   1      20.505  29.526  -1.002  0.00  0.00    +0.133 C 
ENDROOT
BRANCH   1   2
ATOM      2  CB  VAL A   1      19.585  30.692  -1.453  0.00  0.00    +0.023 C 
ATOM      3  CG2 VAL A   1      20.408  31.839  -1.987  0.00  0.00    +0.002 C 
ATOM      4  CG1 VAL A   1      18.585  30.223  -2.488  0.00  0.00    +0.002 C 
ENDBRANCH   1   2
BRANCH   1   5
ATOM      5  N   VAL A   1      21.316  29.001  -2.107  0.00  0.00    -0.239 NA
ATOM      6  H   VAL A   1      20.884  28.322  -2.766  0.00  0.00    +0.142 HD
ENDBRANCH   1   5
BRANCH   1   7
ATOM      7  C   VAL A   1      19.624  28.447  -0.374  0.00  0.00    +0.224 C 
ATOM      8  O   VAL A   1      19.404  27.383  -0.954  0.00  0.00    -0.287 OA
ENDBRANCH   1   7
TORSDOF 3
REMARK  Name = ../refined-set-2016/3ekt/3ekt_pocket.pdb
REMARK  227 active torsions:
REMARK  status: ('A' for Active; 'I' for Inactive)
REMARK    1  A    between atoms: _1  and  _3
REMARK    2  A    between atoms: _3  and  _4
REMARK    3  A    between atoms: _3  and  _6
REMARK    4  A    between atoms: _6  and  _7
REMARK    5  A    between atoms: _7  and  _8
REMARK    6  A    between atoms: _8  and  _9
REMARK    7  A    between atoms: _18  and  _20
REMARK    8  A    between atoms: _20  and  _21
REMARK    9  A    between atoms: _20  and  _23
REMARK   10  A    between atoms: _23  and  _24
REMARK   11  A    between atoms: _27  and  _29
REMARK   12  A    between atoms: _29  and  _30
REMARK   13  A    between atoms: _29  and  _32
REMARK   14  A    between atoms: _32  and  _33
REMARK   15  A    between atoms: _36  and  _38
REMARK   16  A    between atoms: _38  and  _39
REMARK   17  A    between atoms: _38  and  _41
REMARK   18  A    between atoms: _41  and  _42
REMARK   19  A    between atoms: _45  and  _47
REMARK   20  A    between atoms: _47  and  _48
REMARK   21  A    between atoms: _47  and  _50
REMARK   22  A    between atoms: _50  and  _51
REMARK   23  A    between atoms: _54  and  _56
REMARK   24  A    between atoms: _56  and  _57
REMARK   25  A    between atoms: _59  and  _61
REMARK   26  A    between atoms: _61  and  _62
REMARK   27  A    between atoms: _65  and  _67
REMARK   28  A    between atoms: _67  and  _68
REMARK   29  A    between atoms: _67  and  _70
REMARK   30  A    between atoms: _70  and  _71
REMARK   31  A    between atoms: _74  and  _76
REMARK   32  A    between atoms: _76  and  _77
REMARK   33  A    between atoms: _76  and  _79
REMARK   34  A    between atoms: _79  and  _80
REMARK   35  A    between atoms: _83  and  _85
REMARK   36  A    between atoms: _85  and  _86
REMARK   37  A    between atoms: _85  and  _88
REMARK   38  A    between atoms: _88  and  _89
REMARK   39  A    between atoms: _92  and  _94
REMARK   40  A    between atoms: _94  and  _95
REMARK   41  A    between atoms: _94  and  _97
REMARK   42  A    between atoms: _100  and  _102
REMARK   43  A    between atoms: _102  and  _103
REMARK   44  A    between atoms: _102  and  _105
REMARK   45  A    between atoms: _105  and  _106
REMARK   46  A    between atoms: _106  and  _107
REMARK   47  A    between atoms: _107  and  _108
REMARK   48  A    between atoms: _108  and  _109
REMARK   49  A    between atoms: _113  and  _115
REMARK   50  A    between atoms: _115  and  _116
REMARK   51  A    between atoms: _115  and  _118
REMARK   52  A    between atoms: _118  and  _119
REMARK   53  A    between atoms: _119  and  _120
REMARK   54  A    between atoms: _122  and  _124
REMARK   55  A    between atoms: _124  and  _125
REMARK   56  A    between atoms: _124  and  _127
REMARK   57  A    between atoms: _127  and  _128
REMARK   58  A    between atoms: _131  and  _133
REMARK   59  A    between atoms: _133  and  _134
REMARK   60  A    between atoms: _133  and  _136
REMARK   61  A    between atoms: _139  and  _141
REMARK   62  A    between atoms: _141  and  _142
REMARK   63  A    between atoms: _144  and  _146
REMARK   64  A    between atoms: _146  and  _147
REMARK   65  A    between atoms: _146  and  _149
REMARK   66  A    between atoms: _149  and  _150
REMARK   67  A    between atoms: _153  and  _155
REMARK   68  A    between atoms: _155  and  _156
REMARK   69  A    between atoms: _158  and  _160
REMARK   70  A    between atoms: _160  and  _161
REMARK   71  A    between atoms: _163  and  _165
REMARK   72  A    between atoms: _165  and  _166
REMARK   73  A    between atoms: _165  and  _168
REMARK   74  A    between atoms: _171  and  _173
REMARK   75  A    between atoms: _173  and  _174
REMARK   76  A    between atoms: _173  and  _176
REMARK   77  A    between atoms: _179  and  _181
REMARK   78  A    between atoms: _181  and  _182
REMARK   79  A    between atoms: _181  and  _184
REMARK   80  A    between atoms: _184  and  _185
REMARK   81  A    between atoms: _188  and  _190
REMARK   82  A    between atoms: _190  and  _191
REMARK   83  A    between atoms: _190  and  _193
REMARK   84  A    between atoms: _193  and  _194
REMARK   85  A    between atoms: _198  and  _199
REMARK   86  A    between atoms: _204  and  _206
REMARK   87  A    between atoms: _206  and  _207
REMARK   88  A    between atoms: _210  and  _212
REMARK   89  A    between atoms: _212  and  _213
REMARK   90  A    between atoms: _212  and  _215
REMARK   91  A    between atoms: _215  and  _216
REMARK   92  A    between atoms: _221  and  _223
REMARK   93  A    between atoms: _223  and  _224
REMARK   94  A    between atoms: _223  and  _226
REMARK   95  A    between atoms: _226  and  _227
REMARK   96  A    between atoms: _230  and  _232
REMARK   97  A    between atoms: _232  and  _233
REMARK   98  A    between atoms: _232  and  _235
REMARK   99  A    between atoms: _235  and  _236
REMARK  100  A    between atoms: _239  and  _241
REMARK  101  A    between atoms: _241  and  _242
REMARK  102  A    between atoms: _244  and  _246
REMARK  103  A    between atoms: _246  and  _247
REMARK  104  A    between atoms: _246  and  _249
REMARK  105  A    between atoms: _249  and  _250
REMARK  106  A    between atoms: _250  and  _251
REMARK  107  A    between atoms: _251  and  _252
REMARK  108  A    between atoms: _261  and  _263
REMARK  109  A    between atoms: _263  and  _264
REMARK  110  A    between atoms: _263  and  _266
REMARK  111  A    between atoms: _266  and  _267
REMARK  112  A    between atoms: _272  and  _274
REMARK  113  A    between atoms: _274  and  _275
REMARK  114  A    between atoms: _274  and  _277
REMARK  115  A    between atoms: _277  and  _278
REMARK  116  A    between atoms: _278  and  _279
REMARK  117  A    between atoms: _279  and  _280
REMARK  118  A    between atoms: _289  and  _291
REMARK  119  A    between atoms: _291  and  _292
REMARK  120  A    between atoms: _291  and  _294
REMARK  121  A    between atoms: _294  and  _295
REMARK  122  A    between atoms: _298  and  _300
REMARK  123  A    between atoms: _300  and  _301
REMARK  124  A    between atoms: _300  and  _303
REMARK  125  A    between atoms: _303  and  _304
REMARK  126  A    between atoms: _307  and  _309
REMARK  127  A    between atoms: _309  and  _310
REMARK  128  A    between atoms: _309  and  _312
REMARK  129  A    between atoms: _312  and  _313
REMARK  130  A    between atoms: _316  and  _318
REMARK  131  A    between atoms: _318  and  _319
REMARK  132  A    between atoms: _318  and  _321
REMARK  133  A    between atoms: _321  and  _322
REMARK  134  A    between atoms: _325  and  _327
REMARK  135  A    between atoms: _327  and  _328
REMARK  136  A    between atoms: _330  and  _332
REMARK  137  A    between atoms: _332  and  _333
REMARK  138  A    between atoms: _336  and  _338
REMARK  139  A    between atoms: _338  and  _339
REMARK  140  A    between atoms: _338  and  _341
REMARK  141  A    between atoms: _341  and  _342
REMARK  142  A    between atoms: _345  and  _347
REMARK  143  A    between atoms: _347  and  _348
REMARK  144  A    between atoms: _347  and  _350
REMARK  145  A    between atoms: _350  and  _351
REMARK  146  A    between atoms: _354  and  _356
REMARK  147  A    between atoms: _356  and  _357
REMARK  148  A    between atoms: _356  and  _359
REMARK  149  A    between atoms: _359  and  _360
REMARK  150  A    between atoms: _363  and  _365
REMARK  151  A    between atoms: _365  and  _366
REMARK  152  A    between atoms: _365  and  _368
REMARK  153  A    between atoms: _371  and  _373
REMARK  154  A    between atoms: _373  and  _374
REMARK  155  A    between atoms: _373  and  _376
REMARK  156  A    between atoms: _376  and  _377
REMARK  157  A    between atoms: _380  and  _382
REMARK  158  A    between atoms: _382  and  _383
REMARK  159  A    between atoms: _382  and  _385
REMARK  160  A    between atoms: _385  and  _386
REMARK  161  A    between atoms: _386  and  _387
REMARK  162  A    between atoms: _387  and  _388
REMARK  163  A    between atoms: _388  and  _389
REMARK  164  A    between atoms: _393  and  _395
REMARK  165  A    between atoms: _395  and  _396
REMARK  166  A    between atoms: _395  and  _398
REMARK  167  A    between atoms: _398  and  _399
REMARK  168  A    between atoms: _399  and  _400
REMARK  169  A    between atoms: _402  and  _404
REMARK  170  A    between atoms: _404  and  _405
REMARK  171  A    between atoms: _404  and  _407
REMARK  172  A    between atoms: _407  and  _408
REMARK  173  A    between atoms: _411  and  _413
REMARK  174  A    between atoms: _413  and  _414
REMARK  175  A    between atoms: _413  and  _416
REMARK  176  A    between atoms: _419  and  _421
REMARK  177  A    between atoms: _421  and  _422
REMARK  178  A    between atoms: _424  and  _426
REMARK  179  A    between atoms: _426  and  _427
REMARK  180  A    between atoms: _426  and  _429
REMARK  181  A    between atoms: _429  and  _430
REMARK  182  A    between atoms: _433  and  _435
REMARK  183  A    between atoms: _435  and  _436
REMARK  184  A    between atoms: _438  and  _440
REMARK  185  A    between atoms: _440  and  _441
REMARK  186  A    between atoms: _443  and  _445
REMARK  187  A    between atoms: _445  and  _446
REMARK  188  A    between atoms: _445  and  _448
REMARK  189  A    between atoms: _451  and  _453
REMARK  190  A    between atoms: _453  and  _454
REMARK  191  A    between atoms: _453  and  _456
REMARK  192  A    between atoms: _459  and  _461
REMARK  193  A    between atoms: _461  and  _462
REMARK  194  A    between atoms: _461  and  _464
REMARK  195  A    between atoms: _464  and  _465
REMARK  196  A    between atoms: _469  and  _470
REMARK  197  A    between atoms: _475  and  _477
REMARK  198  A    between atoms: _477  and  _478
REMARK  199  A    between atoms: _477  and  _480
REMARK  200  A    between atoms: _480  and  _481
REMARK  201  A    between atoms: _485  and  _486
REMARK  202  A    between atoms: _491  and  _493
REMARK  203  A    between atoms: _493  and  _494
REMARK  204  A    between atoms: _497  and  _499
REMARK  205  A    between atoms: _499  and  _500
REMARK  206  A    between atoms: _499  and  _502
REMARK  207  A    between atoms: _502  and  _503
REMARK  208  A    between atoms: _508  and  _510
REMARK  209  A    between atoms: _510  and  _511
REMARK  210  A    between atoms: _510  and  _513
REMARK  211  A    between atoms: _513  and  _514
REMARK  212  A    between atoms: _517  and  _519
REMARK  213  A    between atoms: _519  and  _520
REMARK  214  A    between atoms: _519  and  _522
REMARK  215  A    between atoms: _522  and  _523
REMARK  216  A    between atoms: _526  and  _528
REMARK  217  A    between atoms: _528  and  _529
REMARK  218  A    between atoms: _531  and  _533
REMARK  219  A    between atoms: _533  and  _534
REMARK  220  A    between atoms: _533  and  _536
REMARK  221  A    between atoms: _536  and  _537
REMARK  222  A    between atoms: _537  and  _538
REMARK  223  A    between atoms: _538  and  _539
REMARK  224  A    between atoms: _548  and  _550
REMARK  225  A    between atoms: _550  and  _551
REMARK  226  A    between atoms: _550  and  _553
REMARK  227  A    between atoms: _553  and  _554
REMARK                            x       y       z     vdW  Elec       q    Type
REMARK                         _______ _______ _______ _____ _____    ______ ____
ROOT
ATOM      1  CA  LEU A   1      15.223  32.357   0.439  0.00  0.00    +0.133 C 
ENDROOT
BRANCH   1   2
ATOM      2  N   LEU A   1      13.906  32.910   0.718  0.00  0.00    -0.239 NA
ATOM      3  H   LEU A   1      13.634  33.810   0.273  0.00  0.00    +0.142 HD
ENDBRANCH   1   2
BRANCH   1   4
ATOM      4  C   LEU A   1      16.237  33.055   1.341  0.00  0.00    +0.224 C 
ATOM      5  O   LEU A   1      16.144  34.266   1.566  0.00  0.00    -0.287 OA
ENDBRANCH   1   4
BRANCH   1   6
ATOM      6  CB  LEU A   1      15.589  32.579  -1.034  0.00  0.00    +0.025 C 
BRANCH   6   7
ATOM      7  CG  LEU A   1      14.609  32.049  -2.078  0.00  0.00    +0.002 C 
ATOM      8  CD2 LEU A   1      14.256  30.596  -1.838  0.00  0.00    +0.000 C 
ATOM      9  CD1 LEU A   1      15.204  32.216  -3.456  0.00  0.00    +0.000 C 
ENDBRANCH   6   7
ENDBRANCH   1   6
TORSDOF 4
REMARK  Name = ../refined-set-2016/3ekt/3ekt_pocket.pdb
REMARK  227 active torsions:
REMARK  status: ('A' for Active; 'I' for Inactive)
REMARK    1  A    between atoms: _1  and  _3
REMARK    2  A    between atoms: _3  and  _4
REMARK    3  A    between atoms: _3  and  _6
REMARK    4  A    between atoms: _6  and  _7
REMARK    5  A    between atoms: _7  and  _8
REMARK    6  A    between atoms: _8  and  _9
REMARK    7  A    between atoms: _18  and  _20
REMARK    8  A    between atoms: _20  and  _21
REMARK    9  A    between atoms: _20  and  _23
REMARK   10  A    between atoms: _23  and  _24
REMARK   11  A    between atoms: _27  and  _29
REMARK   12  A    between atoms: _29  and  _30
REMARK   13  A    between atoms: _29  and  _32
REMARK   14  A    between atoms: _32  and  _33
REMARK   15  A    between atoms: _36  and  _38
REMARK   16  A    between atoms: _38  and  _39
REMARK   17  A    between atoms: _38  and  _41
REMARK   18  A    between atoms: _41  and  _42
REMARK   19  A    between atoms: _45  and  _47
REMARK   20  A    between atoms: _47  and  _48
REMARK   21  A    between atoms: _47  and  _50
REMARK   22  A    between atoms: _50  and  _51
REMARK   23  A    between atoms: _54  and  _56
REMARK   24  A    between atoms: _56  and  _57
REMARK   25  A    between atoms: _59  and  _61
REMARK   26  A    between atoms: _61  and  _62
REMARK   27  A    between atoms: _65  and  _67
REMARK   28  A    between atoms: _67  and  _68
REMARK   29  A    between atoms: _67  and  _70
REMARK   30  A    between atoms: _70  and  _71
REMARK   31  A    between atoms: _74  and  _76
REMARK   32  A    between atoms: _76  and  _77
REMARK   33  A    between atoms: _76  and  _79
REMARK   34  A    between atoms: _79  and  _80
REMARK   35  A    between atoms: _83  and  _85
REMARK   36  A    between atoms: _85  and  _86
REMARK   37  A    between atoms: _85  and  _88
REMARK   38  A    between atoms: _88  and  _89
REMARK   39  A    between atoms: _92  and  _94
REMARK   40  A    between atoms: _94  and  _95
REMARK   41  A    between atoms: _94  and  _97
REMARK   42  A    between atoms: _100  and  _102
REMARK   43  A    between atoms: _102  and  _103
REMARK   44  A    between atoms: _102  and  _105
REMARK   45  A    between atoms: _105  and  _106
REMARK   46  A    between atoms: _106  and  _107
REMARK   47  A    between atoms: _107  and  _108
REMARK   48  A    between atoms: _108  and  _109
REMARK   49  A    between atoms: _113  and  _115
REMARK   50  A    between atoms: _115  and  _116
REMARK   51  A    between atoms: _115  and  _118
REMARK   52  A    between atoms: _118  and  _119
REMARK   53  A    between atoms: _119  and  _120
REMARK   54  A    between atoms: _122  and  _124
REMARK   55  A    between atoms: _124  and  _125
REMARK   56  A    between atoms: _124  and  _127
REMARK   57  A    between atoms: _127  and  _128
REMARK   58  A    between atoms: _131  and  _133
REMARK   59  A    between atoms: _133  and  _134
REMARK   60  A    between atoms: _133  and  _136
REMARK   61  A    between atoms: _139  and  _141
REMARK   62  A    between atoms: _141  and  _142
REMARK   63  A    between atoms: _144  and  _146
REMARK   64  A    between atoms: _146  and  _147
REMARK   65  A    between atoms: _146  and  _149
REMARK   66  A    between atoms: _149  and  _150
REMARK   67  A    between atoms: _153  and  _155
REMARK   68  A    between atoms: _155  and  _156
REMARK   69  A    between atoms: _158  and  _160
REMARK   70  A    between atoms: _160  and  _161
REMARK   71  A    between atoms: _163  and  _165
REMARK   72  A    between atoms: _165  and  _166
REMARK   73  A    between atoms: _165  and  _168
REMARK   74  A    between atoms: _171  and  _173
REMARK   75  A    between atoms: _173  and  _174
REMARK   76  A    between atoms: _173  and  _176
REMARK   77  A    between atoms: _179  and  _181
REMARK   78  A    between atoms: _181  and  _182
REMARK   79  A    between atoms: _181  and  _184
REMARK   80  A    between atoms: _184  and  _185
REMARK   81  A    between atoms: _188  and  _190
REMARK   82  A    between atoms: _190  and  _191
REMARK   83  A    between atoms: _190  and  _193
REMARK   84  A    between atoms: _193  and  _194
REMARK   85  A    between atoms: _198  and  _199
REMARK   86  A    between atoms: _204  and  _206
REMARK   87  A    between atoms: _206  and  _207
REMARK   88  A    between atoms: _210  and  _212
REMARK   89  A    between atoms: _212  and  _213
REMARK   90  A    between atoms: _212  and  _215
REMARK   91  A    between atoms: _215  and  _216
REMARK   92  A    between atoms: _221  and  _223
REMARK   93  A    between atoms: _223  and  _224
REMARK   94  A    between atoms: _223  and  _226
REMARK   95  A    between atoms: _226  and  _227
REMARK   96  A    between atoms: _230  and  _232
REMARK   97  A    between atoms: _232  and  _233
REMARK   98  A    between atoms: _232  and  _235
REMARK   99  A    between atoms: _235  and  _236
REMARK  100  A    between atoms: _239  and  _241
REMARK  101  A    between atoms: _241  and  _242
REMARK  102  A    between atoms: _244  and  _246
REMARK  103  A    between atoms: _246  and  _247
REMARK  104  A    between atoms: _246  and  _249
REMARK  105  A    between atoms: _249  and  _250
REMARK  106  A    between atoms: _250  and  _251
REMARK  107  A    between atoms: _251  and  _252
REMARK  108  A    between atoms: _261  and  _263
REMARK  109  A    between atoms: _263  and  _264
REMARK  110  A    between atoms: _263  and  _266
REMARK  111  A    between atoms: _266  and  _267
REMARK  112  A    between atoms: _272  and  _274
REMARK  113  A    between atoms: _274  and  _275
REMARK  114  A    between atoms: _274  and  _277
REMARK  115  A    between atoms: _277  and  _278
REMARK  116  A    between atoms: _278  and  _279
REMARK  117  A    between atoms: _279  and  _280
REMARK  118  A    between atoms: _289  and  _291
REMARK  119  A    between atoms: _291  and  _292
REMARK  120  A    between atoms: _291  and  _294
REMARK  121  A    between atoms: _294  and  _295
REMARK  122  A    between atoms: _298  and  _300
REMARK  123  A    between atoms: _300  and  _301
REMARK  124  A    between atoms: _300  and  _303
REMARK  125  A    between atoms: _303  and  _304
REMARK  126  A    between atoms: _307  and  _309
REMARK  127  A    between atoms: _309  and  _310
REMARK  128  A    between atoms: _309  and  _312
REMARK  129  A    between atoms: _312  and  _313
REMARK  130  A    between atoms: _316  and  _318
REMARK  131  A    between atoms: _318  and  _319
REMARK  132  A    between atoms: _318  and  _321
REMARK  133  A    between atoms: _321  and  _322
REMARK  134  A    between atoms: _325  and  _327
REMARK  135  A    between atoms: _327  and  _328
REMARK  136  A    between atoms: _330  and  _332
REMARK  137  A    between atoms: _332  and  _333
REMARK  138  A    between atoms: _336  and  _338
REMARK  139  A    between atoms: _338  and  _339
REMARK  140  A    between atoms: _338  and  _341
REMARK  141  A    between atoms: _341  and  _342
REMARK  142  A    between atoms: _345  and  _347
REMARK  143  A    between atoms: _347  and  _348
REMARK  144  A    between atoms: _347  and  _350
REMARK  145  A    between atoms: _350  and  _351
REMARK  146  A    between atoms: _354  and  _356
REMARK  147  A    between atoms: _356  and  _357
REMARK  148  A    between atoms: _356  and  _359
REMARK  149  A    between atoms: _359  and  _360
REMARK  150  A    between atoms: _363  and  _365
REMARK  151  A    between atoms: _365  and  _366
REMARK  152  A    between atoms: _365  and  _368
REMARK  153  A    between atoms: _371  and  _373
REMARK  154  A    between atoms: _373  and  _374
REMARK  155  A    between atoms: _373  and  _376
REMARK  156  A    between atoms: _376  and  _377
REMARK  157  A    between atoms: _380  and  _382
REMARK  158  A    between atoms: _382  and  _383
REMARK  159  A    between atoms: _382  and  _385
REMARK  160  A    between atoms: _385  and  _386
REMARK  161  A    between atoms: _386  and  _387
REMARK  162  A    between atoms: _387  and  _388
REMARK  163  A    between atoms: _388  and  _389
REMARK  164  A    between atoms: _393  and  _395
REMARK  165  A    between atoms: _395  and  _396
REMARK  166  A    between atoms: _395  and  _398
REMARK  167  A    between atoms: _398  and  _399
REMARK  168  A    between atoms: _399  and  _400
REMARK  169  A    between atoms: _402  and  _404
REMARK  170  A    between atoms: _404  and  _405
REMARK  171  A    between atoms: _404  and  _407
REMARK  172  A    between atoms: _407  and  _408
REMARK  173  A    between atoms: _411  and  _413
REMARK  174  A    between atoms: _413  and  _414
REMARK  175  A    between atoms: _413  and  _416
REMARK  176  A    between atoms: _419  and  _421
REMARK  177  A    between atoms: _421  and  _422
REMARK  178  A    between atoms: _424  and  _426
REMARK  179  A    between atoms: _426  and  _427
REMARK  180  A    between atoms: _426  and  _429
REMARK  181  A    between atoms: _429  and  _430
REMARK  182  A    between atoms: _433  and  _435
REMARK  183  A    between atoms: _435  and  _436
REMARK  184  A    between atoms: _438  and  _440
REMARK  185  A    between atoms: _440  and  _441
REMARK  186  A    between atoms: _443  and  _445
REMARK  187  A    between atoms: _445  and  _446
REMARK  188  A    between atoms: _445  and  _448
REMARK  189  A    between atoms: _451  and  _453
REMARK  190  A    between atoms: _453  and  _454
REMARK  191  A    between atoms: _453  and  _456
REMARK  192  A    between atoms: _459  and  _461
REMARK  193  A    between atoms: _461  and  _462
REMARK  194  A    between atoms: _461  and  _464
REMARK  195  A    between atoms: _464  and  _465
REMARK  196  A    between atoms: _469  and  _470
REMARK  197  A    between atoms: _475  and  _477
REMARK  198  A    between atoms: _477  and  _478
REMARK  199  A    between atoms: _477  and  _480
REMARK  200  A    between atoms: _480  and  _481
REMARK  201  A    between atoms: _485  and  _486
REMARK  202  A    between atoms: _491  and  _493
REMARK  203  A    between atoms: _493  and  _494
REMARK  204  A    between atoms: _497  and  _499
REMARK  205  A    between atoms: _499  and  _500
REMARK  206  A    between atoms: _499  and  _502
REMARK  207  A    between atoms: _502  and  _503
REMARK  208  A    between atoms: _508  and  _510
REMARK  209  A    between atoms: _510  and  _511
REMARK  210  A    between atoms: _510  and  _513
REMARK  211  A    between atoms: _513  and  _514
REMARK  212  A    between atoms: _517  and  _519
REMARK  213  A    between atoms: _519  and  _520
REMARK  214  A    between atoms: _519  and  _522
REMARK  215  A    between atoms: _522  and  _523
REMARK  216  A    between atoms: _526  and  _528
REMARK  217  A    between atoms: _528  and  _529
REMARK  218  A    between atoms: _531  and  _533
REMARK  219  A    between atoms: _533  and  _534
REMARK  220  A    between atoms: _533  and  _536
REMARK  221  A    between atoms: _536  and  _537
REMARK  222  A    between atoms: _537  and  _538
REMARK  223  A    between atoms: _538  and  _539
REMARK  224  A    between atoms: _548  and  _550
REMARK  225  A    between atoms: _550  and  _551
REMARK  226  A    between atoms: _550  and  _553
REMARK  227  A    between atoms: _553  and  _554
REMARK                            x       y       z     vdW  Elec       q    Type
REMARK                         _______ _______ _______ _____ _____    ______ ____
ROOT
ATOM      1  C   ILE A   5      13.762  41.231  -1.125  0.00  0.00    +0.241 C 
ATOM      2  O   ILE A   5      13.724  40.015  -0.927  0.00  0.00    -0.273 OA
ATOM      3  N   ILE A   6      12.673  41.978  -1.276  0.00  0.00    -0.297 N 
ATOM      4  H   ILE A   6      12.777  43.011  -1.335  0.00  0.00    +0.150 HD
ENDROOT
BRANCH   3   5
ATOM      5  CA  ILE A   6      11.349  41.404  -1.361  0.00  0.00    +0.149 C 
BRANCH   5   6
ATOM      6  C   ILE A   6      11.037  41.299  -2.845  0.00  0.00    +0.241 C 
ATOM      7  N   GLY A   7      10.892  40.074  -3.323  0.00  0.00    -0.295 N 
ATOM      8  H   GLY A   7      10.932  39.266  -2.669  0.00  0.00    +0.150 HD
ATOM      9  O   ILE A   6      11.011  42.300  -3.557  0.00  0.00    -0.273 OA
BRANCH   7  10
ATOM     10  CA  GLY A   7      10.678  39.829  -4.739  0.00  0.00    +0.176 C 
BRANCH  10  11
ATOM     11  C   GLY A   7       9.217  39.629  -5.049  0.00  0.00    +0.243 C 
ATOM     12  O   GLY A   7       8.372  39.740  -4.173  0.00  0.00    -0.273 OA
ATOM     13  N   ARG A   8       8.921  39.301  -6.295  0.00  0.00    -0.297 N 
ATOM     14  H   ARG A   8       9.686  39.035  -6.947  0.00  0.00    +0.150 HD
BRANCH  13  15
ATOM     15  CA  ARG A   8       7.553  39.305  -6.771  0.00  0.00    +0.149 C 
BRANCH  15  16
ATOM     16  C   ARG A   8       6.644  38.349  -5.996  0.00  0.00    +0.241 C 
ATOM     17  N   ASN A   9       7.203  37.258  -5.493  0.00  0.00    -0.298 N 
ATOM     18  H   ASN A   9       8.226  37.108  -5.607  0.00  0.00    +0.150 HD
ATOM     19  O   ARG A   8       5.459  38.601  -5.853  0.00  0.00    -0.273 OA
BRANCH  17  20
ATOM     20  CA  ASN A   9       6.405  36.264  -4.782  0.00  0.00    +0.146 C 
BRANCH  20  21
ATOM     21  C   ASN A   9       5.719  36.863  -3.565  0.00  0.00    +0.227 C 
ATOM     22  O   ASN A   9       4.660  36.411  -3.160  0.00  0.00    -0.286 OA
ENDBRANCH  20  21
BRANCH  20  23
ATOM     23  CB  ASN A   9       7.276  35.077  -4.355  0.00  0.00    +0.112 C 
BRANCH  23  24
ATOM     24  CG  ASN A   9       8.154  35.397  -3.169  0.00  0.00    +0.222 C 
ATOM     25  ND2 ASN A   9       8.019  34.624  -2.105  0.00  0.00    -0.329 N 
ATOM     26 HD21 ASN A   9       8.643  34.756  -1.284  0.00  0.00    +0.145 HD
ATOM     27 HD22 ASN A   9       7.288  33.884  -2.089  0.00  0.00    +0.145 HD
ATOM     28  OD1 ASN A   9       8.998  36.281  -3.236  0.00  0.00    -0.275 OA
ENDBRANCH  23  24
ENDBRANCH  20  23
ENDBRANCH  17  20
ENDBRANCH  15  16
BRANCH  15  29
ATOM     29  CB  ARG A   8       7.518  38.987  -8.261  0.00  0.00    +0.033 C 
BRANCH  29  30
ATOM     30  CG  ARG A   8       8.129  40.087  -9.123  0.00  0.00    +0.045 C 
BRANCH  30  31
ATOM     31  CD  ARG A   8       7.884  39.841 -10.589  0.00  0.00    +0.174 C 
BRANCH  31  32
ATOM     32  NE  ARG A   8       8.564  38.628 -11.042  0.00  0.00    -0.265 N 
ATOM     33  HE  ARG A   8       9.586  38.682 -11.227  0.00  0.00    +0.259 HD
ATOM     34  CZ  ARG A   8       7.959  37.462 -11.232  0.00  0.00    +0.342 C 
ATOM     35  NH2 ARG A   8       6.658  37.346 -11.015  0.00  0.00    -0.292 N 
ATOM     36 HH21 ARG A   8       6.109  38.169 -10.695  0.00  0.00    +0.255 HD
ATOM     37 HH22 ARG A   8       6.185  36.432 -11.164  0.00  0.00    +0.255 HD
ATOM     38  NH1 ARG A   8       8.657  36.406 -11.614  0.00  0.00    -0.292 N 
ATOM     39 HH11 ARG A   8       8.180  35.494 -11.762  0.00  0.00    +0.255 HD
ATOM     40 HH12 ARG A   8       9.683  36.488 -11.766  0.00  0.00    +0.255 HD
ENDBRANCH  31  32
ENDBRANCH  30  31
ENDBRANCH  29  30
ENDBRANCH  15  29
ENDBRANCH  13  15
ENDBRANCH  10  11
ENDBRANCH   7  10
ENDBRANCH   5   6
BRANCH   5  41
ATOM     41  CB  ILE A   6      10.307  42.301  -0.660  0.00  0.00    +0.027 C 
ATOM     42  CG2 ILE A   6       8.952  41.613  -0.601  0.00  0.00    +0.002 C 
BRANCH  41  43
ATOM     43  CG1 ILE A   6      10.801  42.723   0.732  0.00  0.00    +0.002 C 
ATOM     44  CD1 ILE A   6      11.026  41.602   1.680  0.00  0.00    +0.000 C 
ENDBRANCH  41  43
ENDBRANCH   5  41
ENDBRANCH   3   5
BRANCH   1  45
ATOM     45  CA  ILE A   5      15.093  41.985  -1.166  0.00  0.00    +0.149 C 
BRANCH  45  48
ATOM     46  C   ASN A   4      16.590  42.518   0.666  0.00  0.00    +0.241 C 
ATOM     47  O   ASN A   4      16.453  43.720   0.493  0.00  0.00    -0.273 OA
ATOM     48  N   ILE A   5      15.963  41.603  -0.070  0.00  0.00    -0.297 N 
ATOM     49  H   ILE A   5      16.100  40.595   0.145  0.00  0.00    +0.150 HD
BRANCH  46  50
ATOM     50  CA  ASN A   4      17.482  42.012   1.787  0.00  0.00    +0.158 C 
BRANCH  50  52
ATOM     51  C   ALA A   3      19.595  42.255   0.610  0.00  0.00    +0.241 C 
ATOM     52  N   ASN A   4      18.796  42.624   1.608  0.00  0.00    -0.297 N 
ATOM     53  H   ASN A   4      19.112  43.360   2.271  0.00  0.00    +0.150 HD
ATOM     54  O   ALA A   3      19.422  41.218  -0.036  0.00  0.00    -0.273 OA
BRANCH  51  55
ATOM     55  CA  ALA A   3      20.783  43.169   0.314  0.00  0.00    +0.149 C 
ATOM     56  CB  ALA A   3      20.431  44.158  -0.798  0.00  0.00    +0.031 C 
BRANCH  55  59
ATOM     57  C   PRO A   2      23.193  42.840   0.084  0.00  0.00    +0.241 C 
ATOM     58  O   PRO A   2      23.451  43.903   0.635  0.00  0.00    -0.273 OA
ATOM     59  N   ALA A   3      21.952  42.382  -0.063  0.00  0.00    -0.297 N 
ATOM     60  H   ALA A   3      21.811  41.431  -0.460  0.00  0.00    +0.150 HD
BRANCH  57  64
ATOM     61  C   THR A   1      23.446  39.733  -0.142  0.00  0.00    +0.244 C 
ATOM     62  O   THR A   1      23.599  39.841   1.080  0.00  0.00    -0.273 OA
ATOM     63  N   PRO A   2      23.825  40.691  -0.988  0.00  0.00    -0.272 N 
ATOM     64  CA  PRO A   2      24.319  41.944  -0.434  0.00  0.00    +0.152 C 
ATOM     65  CB  PRO A   2      25.036  42.592  -1.620  0.00  0.00    +0.031 C 
ATOM     66  CG  PRO A   2      24.404  42.020  -2.818  0.00  0.00    +0.024 C 
ATOM     67  CD  PRO A   2      23.866  40.673  -2.460  0.00  0.00    +0.094 C 
BRANCH  61  68
ATOM     68  CA  THR A   1      22.863  38.456  -0.749  0.00  0.00    +0.172 C 
BRANCH  68  69
ATOM     69  N   THR A   1      23.283  37.314   0.047  0.00  0.00    -0.236 NA
ATOM     70  H   THR A   1      22.687  37.006   0.842  0.00  0.00    +0.142 HD
ENDBRANCH  68  69
BRANCH  68  71
ATOM     71  CB  THR A   1      21.324  38.542  -0.817  0.00  0.00    +0.135 C 
ATOM     72  CG2 THR A   1      20.722  38.451   0.564  0.00  0.00    +0.034 C 
BRANCH  71  73
ATOM     73  OG1 THR A   1      20.929  39.787  -1.415  0.00  0.00    -0.383 OA
ATOM     74  HG1 THR A   1      19.941  39.834  -1.455  0.00  0.00    +0.210 HD
ENDBRANCH  71  73
ENDBRANCH  68  71
ENDBRANCH  61  68
ENDBRANCH  57  64
ENDBRANCH  55  59
ENDBRANCH  51  55
ENDBRANCH  50  52
BRANCH  50  75
ATOM     75  CB  ASN A   4      16.863  42.421   3.126  0.00  0.00    +0.114 C 
BRANCH  75  76
ATOM     76  CG  ASN A   4      17.583  41.838   4.324  0.00  0.00    +0.222 C 
ATOM     77  ND2 ASN A   4      17.498  42.535   5.453  0.00  0.00    -0.329 N 
ATOM     78 HD21 ASN A   4      17.944  42.175   6.321  0.00  0.00    +0.145 HD
ATOM     79 HD22 ASN A   4      16.986  43.440   5.468  0.00  0.00    +0.145 HD
ATOM     80  OD1 ASN A   4      18.176  40.763   4.251  0.00  0.00    -0.275 OA
ENDBRANCH  75  76
ENDBRANCH  50  75
ENDBRANCH  46  50
ENDBRANCH  45  48
BRANCH  45  81
ATOM     81  CB  ILE A   5      15.787  41.795  -2.542  0.00  0.00    +0.027 C 
ATOM     82  CG2 ILE A   5      16.954  42.777  -2.688  0.00  0.00    +0.002 C 
BRANCH  81  83
ATOM     83  CG1 ILE A   5      16.289  40.362  -2.714  0.00  0.00    +0.002 C 
ATOM     84  CD1 ILE A   5      16.994  40.140  -4.042  0.00  0.00    +0.000 C 
ENDBRANCH  81  83
ENDBRANCH  45  81
ENDBRANCH   1  45
TORSDOF 31
REMARK  Name = ../refined-set-2016/3ekt/3ekt_pocket.pdb
REMARK  227 active torsions:
REMARK  status: ('A' for Active; 'I' for Inactive)
REMARK    1  A    between atoms: _1  and  _3
REMARK    2  A    between atoms: _3  and  _4
REMARK    3  A    between atoms: _3  and  _6
REMARK    4  A    between atoms: _6  and  _7
REMARK    5  A    between atoms: _7  and  _8
REMARK    6  A    between atoms: _8  and  _9
REMARK    7  A    between atoms: _18  and  _20
REMARK    8  A    between atoms: _20  and  _21
REMARK    9  A    between atoms: _20  and  _23
REMARK   10  A    between atoms: _23  and  _24
REMARK   11  A    between atoms: _27  and  _29
REMARK   12  A    between atoms: _29  and  _30
REMARK   13  A    between atoms: _29  and  _32
REMARK   14  A    between atoms: _32  and  _33
REMARK   15  A    between atoms: _36  and  _38
REMARK   16  A    between atoms: _38  and  _39
REMARK   17  A    between atoms: _38  and  _41
REMARK   18  A    between atoms: _41  and  _42
REMARK   19  A    between atoms: _45  and  _47
REMARK   20  A    between atoms: _47  and  _48
REMARK   21  A    between atoms: _47  and  _50
REMARK   22  A    between atoms: _50  and  _51
REMARK   23  A    between atoms: _54  and  _56
REMARK   24  A    between atoms: _56  and  _57
REMARK   25  A    between atoms: _59  and  _61
REMARK   26  A    between atoms: _61  and  _62
REMARK   27  A    between atoms: _65  and  _67
REMARK   28  A    between atoms: _67  and  _68
REMARK   29  A    between atoms: _67  and  _70
REMARK   30  A    between atoms: _70  and  _71
REMARK   31  A    between atoms: _74  and  _76
REMARK   32  A    between atoms: _76  and  _77
REMARK   33  A    between atoms: _76  and  _79
REMARK   34  A    between atoms: _79  and  _80
REMARK   35  A    between atoms: _83  and  _85
REMARK   36  A    between atoms: _85  and  _86
REMARK   37  A    between atoms: _85  and  _88
REMARK   38  A    between atoms: _88  and  _89
REMARK   39  A    between atoms: _92  and  _94
REMARK   40  A    between atoms: _94  and  _95
REMARK   41  A    between atoms: _94  and  _97
REMARK   42  A    between atoms: _100  and  _102
REMARK   43  A    between atoms: _102  and  _103
REMARK   44  A    between atoms: _102  and  _105
REMARK   45  A    between atoms: _105  and  _106
REMARK   46  A    between atoms: _106  and  _107
REMARK   47  A    between atoms: _107  and  _108
REMARK   48  A    between atoms: _108  and  _109
REMARK   49  A    between atoms: _113  and  _115
REMARK   50  A    between atoms: _115  and  _116
REMARK   51  A    between atoms: _115  and  _118
REMARK   52  A    between atoms: _118  and  _119
REMARK   53  A    between atoms: _119  and  _120
REMARK   54  A    between atoms: _122  and  _124
REMARK   55  A    between atoms: _124  and  _125
REMARK   56  A    between atoms: _124  and  _127
REMARK   57  A    between atoms: _127  and  _128
REMARK   58  A    between atoms: _131  and  _133
REMARK   59  A    between atoms: _133  and  _134
REMARK   60  A    between atoms: _133  and  _136
REMARK   61  A    between atoms: _139  and  _141
REMARK   62  A    between atoms: _141  and  _142
REMARK   63  A    between atoms: _144  and  _146
REMARK   64  A    between atoms: _146  and  _147
REMARK   65  A    between atoms: _146  and  _149
REMARK   66  A    between atoms: _149  and  _150
REMARK   67  A    between atoms: _153  and  _155
REMARK   68  A    between atoms: _155  and  _156
REMARK   69  A    between atoms: _158  and  _160
REMARK   70  A    between atoms: _160  and  _161
REMARK   71  A    between atoms: _163  and  _165
REMARK   72  A    between atoms: _165  and  _166
REMARK   73  A    between atoms: _165  and  _168
REMARK   74  A    between atoms: _171  and  _173
REMARK   75  A    between atoms: _173  and  _174
REMARK   76  A    between atoms: _173  and  _176
REMARK   77  A    between atoms: _179  and  _181
REMARK   78  A    between atoms: _181  and  _182
REMARK   79  A    between atoms: _181  and  _184
REMARK   80  A    between atoms: _184  and  _185
REMARK   81  A    between atoms: _188  and  _190
REMARK   82  A    between atoms: _190  and  _191
REMARK   83  A    between atoms: _190  and  _193
REMARK   84  A    between atoms: _193  and  _194
REMARK   85  A    between atoms: _198  and  _199
REMARK   86  A    between atoms: _204  and  _206
REMARK   87  A    between atoms: _206  and  _207
REMARK   88  A    between atoms: _210  and  _212
REMARK   89  A    between atoms: _212  and  _213
REMARK   90  A    between atoms: _212  and  _215
REMARK   91  A    between atoms: _215  and  _216
REMARK   92  A    between atoms: _221  and  _223
REMARK   93  A    between atoms: _223  and  _224
REMARK   94  A    between atoms: _223  and  _226
REMARK   95  A    between atoms: _226  and  _227
REMARK   96  A    between atoms: _230  and  _232
REMARK   97  A    between atoms: _232  and  _233
REMARK   98  A    between atoms: _232  and  _235
REMARK   99  A    between atoms: _235  and  _236
REMARK  100  A    between atoms: _239  and  _241
REMARK  101  A    between atoms: _241  and  _242
REMARK  102  A    between atoms: _244  and  _246
REMARK  103  A    between atoms: _246  and  _247
REMARK  104  A    between atoms: _246  and  _249
REMARK  105  A    between atoms: _249  and  _250
REMARK  106  A    between atoms: _250  and  _251
REMARK  107  A    between atoms: _251  and  _252
REMARK  108  A    between atoms: _261  and  _263
REMARK  109  A    between atoms: _263  and  _264
REMARK  110  A    between atoms: _263  and  _266
REMARK  111  A    between atoms: _266  and  _267
REMARK  112  A    between atoms: _272  and  _274
REMARK  113  A    between atoms: _274  and  _275
REMARK  114  A    between atoms: _274  and  _277
REMARK  115  A    between atoms: _277  and  _278
REMARK  116  A    between atoms: _278  and  _279
REMARK  117  A    between atoms: _279  and  _280
REMARK  118  A    between atoms: _289  and  _291
REMARK  119  A    between atoms: _291  and  _292
REMARK  120  A    between atoms: _291  and  _294
REMARK  121  A    between atoms: _294  and  _295
REMARK  122  A    between atoms: _298  and  _300
REMARK  123  A    between atoms: _300  and  _301
REMARK  124  A    between atoms: _300  and  _303
REMARK  125  A    between atoms: _303  and  _304
REMARK  126  A    between atoms: _307  and  _309
REMARK  127  A    between atoms: _309  and  _310
REMARK  128  A    between atoms: _309  and  _312
REMARK  129  A    between atoms: _312  and  _313
REMARK  130  A    between atoms: _316  and  _318
REMARK  131  A    between atoms: _318  and  _319
REMARK  132  A    between atoms: _318  and  _321
REMARK  133  A    between atoms: _321  and  _322
REMARK  134  A    between atoms: _325  and  _327
REMARK  135  A    between atoms: _327  and  _328
REMARK  136  A    between atoms: _330  and  _332
REMARK  137  A    between atoms: _332  and  _333
REMARK  138  A    between atoms: _336  and  _338
REMARK  139  A    between atoms: _338  and  _339
REMARK  140  A    between atoms: _338  and  _341
REMARK  141  A    between atoms: _341  and  _342
REMARK  142  A    between atoms: _345  and  _347
REMARK  143  A    between atoms: _347  and  _348
REMARK  144  A    between atoms: _347  and  _350
REMARK  145  A    between atoms: _350  and  _351
REMARK  146  A    between atoms: _354  and  _356
REMARK  147  A    between atoms: _356  and  _357
REMARK  148  A    between atoms: _356  and  _359
REMARK  149  A    between atoms: _359  and  _360
REMARK  150  A    between atoms: _363  and  _365
REMARK  151  A    between atoms: _365  and  _366
REMARK  152  A    between atoms: _365  and  _368
REMARK  153  A    between atoms: _371  and  _373
REMARK  154  A    between atoms: _373  and  _374
REMARK  155  A    between atoms: _373  and  _376
REMARK  156  A    between atoms: _376  and  _377
REMARK  157  A    between atoms: _380  and  _382
REMARK  158  A    between atoms: _382  and  _383
REMARK  159  A    between atoms: _382  and  _385
REMARK  160  A    between atoms: _385  and  _386
REMARK  161  A    between atoms: _386  and  _387
REMARK  162  A    between atoms: _387  and  _388
REMARK  163  A    between atoms: _388  and  _389
REMARK  164  A    between atoms: _393  and  _395
REMARK  165  A    between atoms: _395  and  _396
REMARK  166  A    between atoms: _395  and  _398
REMARK  167  A    between atoms: _398  and  _399
REMARK  168  A    between atoms: _399  and  _400
REMARK  169  A    between atoms: _402  and  _404
REMARK  170  A    between atoms: _404  and  _405
REMARK  171  A    between atoms: _404  and  _407
REMARK  172  A    between atoms: _407  and  _408
REMARK  173  A    between atoms: _411  and  _413
REMARK  174  A    between atoms: _413  and  _414
REMARK  175  A    between atoms: _413  and  _416
REMARK  176  A    between atoms: _419  and  _421
REMARK  177  A    between atoms: _421  and  _422
REMARK  178  A    between atoms: _424  and  _426
REMARK  179  A    between atoms: _426  and  _427
REMARK  180  A    between atoms: _426  and  _429
REMARK  181  A    between atoms: _429  and  _430
REMARK  182  A    between atoms: _433  and  _435
REMARK  183  A    between atoms: _435  and  _436
REMARK  184  A    between atoms: _438  and  _440
REMARK  185  A    between atoms: _440  and  _441
REMARK  186  A    between atoms: _443  and  _445
REMARK  187  A    between atoms: _445  and  _446
REMARK  188  A    between atoms: _445  and  _448
REMARK  189  A    between atoms: _451  and  _453
REMARK  190  A    between atoms: _453  and  _454
REMARK  191  A    between atoms: _453  and  _456
REMARK  192  A    between atoms: _459  and  _461
REMARK  193  A    between atoms: _461  and  _462
REMARK  194  A    between atoms: _461  and  _464
REMARK  195  A    between atoms: _464  and  _465
REMARK  196  A    between atoms: _469  and  _470
REMARK  197  A    between atoms: _475  and  _477
REMARK  198  A    between atoms: _477  and  _478
REMARK  199  A    between atoms: _477  and  _480
REMARK  200  A    between atoms: _480  and  _481
REMARK  201  A    between atoms: _485  and  _486
REMARK  202  A    between atoms: _491  and  _493
REMARK  203  A    between atoms: _493  and  _494
REMARK  204  A    between atoms: _497  and  _499
REMARK  205  A    between atoms: _499  and  _500
REMARK  206  A    between atoms: _499  and  _502
REMARK  207  A    between atoms: _502  and  _503
REMARK  208  A    between atoms: _508  and  _510
REMARK  209  A    between atoms: _510  and  _511
REMARK  210  A    between atoms: _510  and  _513
REMARK  211  A    between atoms: _513  and  _514
REMARK  212  A    between atoms: _517  and  _519
REMARK  213  A    between atoms: _519  and  _520
REMARK  214  A    between atoms: _519  and  _522
REMARK  215  A    between atoms: _522  and  _523
REMARK  216  A    between atoms: _526  and  _528
REMARK  217  A    between atoms: _528  and  _529
REMARK  218  A    between atoms: _531  and  _533
REMARK  219  A    between atoms: _533  and  _534
REMARK  220  A    between atoms: _533  and  _536
REMARK  221  A    between atoms: _536  and  _537
REMARK  222  A    between atoms: _537  and  _538
REMARK  223  A    between atoms: _538  and  _539
REMARK  224  A    between atoms: _548  and  _550
REMARK  225  A    between atoms: _550  and  _551
REMARK  226  A    between atoms: _550  and  _553
REMARK  227  A    between atoms: _553  and  _554
REMARK                            x       y       z     vdW  Elec       q    Type
REMARK                         _______ _______ _______ _____ _____    ______ ____
ROOT
ATOM      1  NE  ARG A   1      11.451  35.882 -14.644  0.00  0.00    -0.265 N 
ATOM      2  HE  ARG A   1      11.204  35.822 -13.636  0.00  0.00    +0.259 HD
ATOM      3  CZ  ARG A   1      12.222  34.923 -15.150  0.00  0.00    +0.342 C 
ATOM      4  NH2 ARG A   1      12.645  33.928 -14.370  0.00  0.00    -0.292 N 
ATOM      5 HH21 ARG A   1      12.372  33.902 -13.367  0.00  0.00    +0.255 HD
ATOM      6 HH22 ARG A   1      13.248  33.178 -14.765  0.00  0.00    +0.255 HD
ATOM      7  NH1 ARG A   1      12.546  34.945 -16.439  0.00  0.00    -0.292 N 
ATOM      8 HH11 ARG A   1      13.149  34.196 -16.837  0.00  0.00    +0.255 HD
ATOM      9 HH12 ARG A   1      12.197  35.711 -17.050  0.00  0.00    +0.255 HD
ENDROOT
BRANCH   1  10
ATOM     10  CD  ARG A   1      10.927  37.014 -15.406  0.00  0.00    +0.174 C 
BRANCH  10  11
ATOM     11  CG  ARG A   1       9.823  37.697 -14.624  0.00  0.00    +0.045 C 
BRANCH  11  12
ATOM     12  CB  ARG A   1       9.239  38.885 -15.369  0.00  0.00    +0.029 C 
BRANCH  12  13
ATOM     13  CA  ARG A   1       8.038  39.506 -14.660  0.00  0.00    +0.133 C 
BRANCH  13  14
ATOM     14  N   ARG A   1       6.930  38.553 -14.584  0.00  0.00    -0.239 NA
ATOM     15  H   ARG A   1       7.035  37.612 -15.013  0.00  0.00    +0.142 HD
ENDBRANCH  13  14
BRANCH  13  16
ATOM     16  C   ARG A   1       7.577  40.749 -15.408  0.00  0.00    +0.224 C 
ATOM     17  O   ARG A   1       6.889  40.644 -16.425  0.00  0.00    -0.287 OA
ENDBRANCH  13  16
ENDBRANCH  12  13
ENDBRANCH  11  12
ENDBRANCH  10  11
ENDBRANCH   1  10
TORSDOF 6
REMARK  Name = ../refined-set-2016/3ekt/3ekt_pocket.pdb
REMARK  227 active torsions:
REMARK  status: ('A' for Active; 'I' for Inactive)
REMARK    1  A    between atoms: _1  and  _3
REMARK    2  A    between atoms: _3  and  _4
REMARK    3  A    between atoms: _3  and  _6
REMARK    4  A    between atoms: _6  and  _7
REMARK    5  A    between atoms: _7  and  _8
REMARK    6  A    between atoms: _8  and  _9
REMARK    7  A    between atoms: _18  and  _20
REMARK    8  A    between atoms: _20  and  _21
REMARK    9  A    between atoms: _20  and  _23
REMARK   10  A    between atoms: _23  and  _24
REMARK   11  A    between atoms: _27  and  _29
REMARK   12  A    between atoms: _29  and  _30
REMARK   13  A    between atoms: _29  and  _32
REMARK   14  A    between atoms: _32  and  _33
REMARK   15  A    between atoms: _36  and  _38
REMARK   16  A    between atoms: _38  and  _39
REMARK   17  A    between atoms: _38  and  _41
REMARK   18  A    between atoms: _41  and  _42
REMARK   19  A    between atoms: _45  and  _47
REMARK   20  A    between atoms: _47  and  _48
REMARK   21  A    between atoms: _47  and  _50
REMARK   22  A    between atoms: _50  and  _51
REMARK   23  A    between atoms: _54  and  _56
REMARK   24  A    between atoms: _56  and  _57
REMARK   25  A    between atoms: _59  and  _61
REMARK   26  A    between atoms: _61  and  _62
REMARK   27  A    between atoms: _65  and  _67
REMARK   28  A    between atoms: _67  and  _68
REMARK   29  A    between atoms: _67  and  _70
REMARK   30  A    between atoms: _70  and  _71
REMARK   31  A    between atoms: _74  and  _76
REMARK   32  A    between atoms: _76  and  _77
REMARK   33  A    between atoms: _76  and  _79
REMARK   34  A    between atoms: _79  and  _80
REMARK   35  A    between atoms: _83  and  _85
REMARK   36  A    between atoms: _85  and  _86
REMARK   37  A    between atoms: _85  and  _88
REMARK   38  A    between atoms: _88  and  _89
REMARK   39  A    between atoms: _92  and  _94
REMARK   40  A    between atoms: _94  and  _95
REMARK   41  A    between atoms: _94  and  _97
REMARK   42  A    between atoms: _100  and  _102
REMARK   43  A    between atoms: _102  and  _103
REMARK   44  A    between atoms: _102  and  _105
REMARK   45  A    between atoms: _105  and  _106
REMARK   46  A    between atoms: _106  and  _107
REMARK   47  A    between atoms: _107  and  _108
REMARK   48  A    between atoms: _108  and  _109
REMARK   49  A    between atoms: _113  and  _115
REMARK   50  A    between atoms: _115  and  _116
REMARK   51  A    between atoms: _115  and  _118
REMARK   52  A    between atoms: _118  and  _119
REMARK   53  A    between atoms: _119  and  _120
REMARK   54  A    between atoms: _122  and  _124
REMARK   55  A    between atoms: _124  and  _125
REMARK   56  A    between atoms: _124  and  _127
REMARK   57  A    between atoms: _127  and  _128
REMARK   58  A    between atoms: _131  and  _133
REMARK   59  A    between atoms: _133  and  _134
REMARK   60  A    between atoms: _133  and  _136
REMARK   61  A    between atoms: _139  and  _141
REMARK   62  A    between atoms: _141  and  _142
REMARK   63  A    between atoms: _144  and  _146
REMARK   64  A    between atoms: _146  and  _147
REMARK   65  A    between atoms: _146  and  _149
REMARK   66  A    between atoms: _149  and  _150
REMARK   67  A    between atoms: _153  and  _155
REMARK   68  A    between atoms: _155  and  _156
REMARK   69  A    between atoms: _158  and  _160
REMARK   70  A    between atoms: _160  and  _161
REMARK   71  A    between atoms: _163  and  _165
REMARK   72  A    between atoms: _165  and  _166
REMARK   73  A    between atoms: _165  and  _168
REMARK   74  A    between atoms: _171  and  _173
REMARK   75  A    between atoms: _173  and  _174
REMARK   76  A    between atoms: _173  and  _176
REMARK   77  A    between atoms: _179  and  _181
REMARK   78  A    between atoms: _181  and  _182
REMARK   79  A    between atoms: _181  and  _184
REMARK   80  A    between atoms: _184  and  _185
REMARK   81  A    between atoms: _188  and  _190
REMARK   82  A    between atoms: _190  and  _191
REMARK   83  A    between atoms: _190  and  _193
REMARK   84  A    between atoms: _193  and  _194
REMARK   85  A    between atoms: _198  and  _199
REMARK   86  A    between atoms: _204  and  _206
REMARK   87  A    between atoms: _206  and  _207
REMARK   88  A    between atoms: _210  and  _212
REMARK   89  A    between atoms: _212  and  _213
REMARK   90  A    between atoms: _212  and  _215
REMARK   91  A    between atoms: _215  and  _216
REMARK   92  A    between atoms: _221  and  _223
REMARK   93  A    between atoms: _223  and  _224
REMARK   94  A    between atoms: _223  and  _226
REMARK   95  A    between atoms: _226  and  _227
REMARK   96  A    between atoms: _230  and  _232
REMARK   97  A    between atoms: _232  and  _233
REMARK   98  A    between atoms: _232  and  _235
REMARK   99  A    between atoms: _235  and  _236
REMARK  100  A    between atoms: _239  and  _241
REMARK  101  A    between atoms: _241  and  _242
REMARK  102  A    between atoms: _244  and  _246
REMARK  103  A    between atoms: _246  and  _247
REMARK  104  A    between atoms: _246  and  _249
REMARK  105  A    between atoms: _249  and  _250
REMARK  106  A    between atoms: _250  and  _251
REMARK  107  A    between atoms: _251  and  _252
REMARK  108  A    between atoms: _261  and  _263
REMARK  109  A    between atoms: _263  and  _264
REMARK  110  A    between atoms: _263  and  _266
REMARK  111  A    between atoms: _266  and  _267
REMARK  112  A    between atoms: _272  and  _274
REMARK  113  A    between atoms: _274  and  _275
REMARK  114  A    between atoms: _274  and  _277
REMARK  115  A    between atoms: _277  and  _278
REMARK  116  A    between atoms: _278  and  _279
REMARK  117  A    between atoms: _279  and  _280
REMARK  118  A    between atoms: _289  and  _291
REMARK  119  A    between atoms: _291  and  _292
REMARK  120  A    between atoms: _291  and  _294
REMARK  121  A    between atoms: _294  and  _295
REMARK  122  A    between atoms: _298  and  _300
REMARK  123  A    between atoms: _300  and  _301
REMARK  124  A    between atoms: _300  and  _303
REMARK  125  A    between atoms: _303  and  _304
REMARK  126  A    between atoms: _307  and  _309
REMARK  127  A    between atoms: _309  and  _310
REMARK  128  A    between atoms: _309  and  _312
REMARK  129  A    between atoms: _312  and  _313
REMARK  130  A    between atoms: _316  and  _318
REMARK  131  A    between atoms: _318  and  _319
REMARK  132  A    between atoms: _318  and  _321
REMARK  133  A    between atoms: _321  and  _322
REMARK  134  A    between atoms: _325  and  _327
REMARK  135  A    between atoms: _327  and  _328
REMARK  136  A    between atoms: _330  and  _332
REMARK  137  A    between atoms: _332  and  _333
REMARK  138  A    between atoms: _336  and  _338
REMARK  139  A    between atoms: _338  and  _339
REMARK  140  A    between atoms: _338  and  _341
REMARK  141  A    between atoms: _341  and  _342
REMARK  142  A    between atoms: _345  and  _347
REMARK  143  A    between atoms: _347  and  _348
REMARK  144  A    between atoms: _347  and  _350
REMARK  145  A    between atoms: _350  and  _351
REMARK  146  A    between atoms: _354  and  _356
REMARK  147  A    between atoms: _356  and  _357
REMARK  148  A    between atoms: _356  and  _359
REMARK  149  A    between atoms: _359  and  _360
REMARK  150  A    between atoms: _363  and  _365
REMARK  151  A    between atoms: _365  and  _366
REMARK  152  A    between atoms: _365  and  _368
REMARK  153  A    between atoms: _371  and  _373
REMARK  154  A    between atoms: _373  and  _374
REMARK  155  A    between atoms: _373  and  _376
REMARK  156  A    between atoms: _376  and  _377
REMARK  157  A    between atoms: _380  and  _382
REMARK  158  A    between atoms: _382  and  _383
REMARK  159  A    between atoms: _382  and  _385
REMARK  160  A    between atoms: _385  and  _386
REMARK  161  A    between atoms: _386  and  _387
REMARK  162  A    between atoms: _387  and  _388
REMARK  163  A    between atoms: _388  and  _389
REMARK  164  A    between atoms: _393  and  _395
REMARK  165  A    between atoms: _395  and  _396
REMARK  166  A    between atoms: _395  and  _398
REMARK  167  A    between atoms: _398  and  _399
REMARK  168  A    between atoms: _399  and  _400
REMARK  169  A    between atoms: _402  and  _404
REMARK  170  A    between atoms: _404  and  _405
REMARK  171  A    between atoms: _404  and  _407
REMARK  172  A    between atoms: _407  and  _408
REMARK  173  A    between atoms: _411  and  _413
REMARK  174  A    between atoms: _413  and  _414
REMARK  175  A    between atoms: _413  and  _416
REMARK  176  A    between atoms: _419  and  _421
REMARK  177  A    between atoms: _421  and  _422
REMARK  178  A    between atoms: _424  and  _426
REMARK  179  A    between atoms: _426  and  _427
REMARK  180  A    between atoms: _426  and  _429
REMARK  181  A    between atoms: _429  and  _430
REMARK  182  A    between atoms: _433  and  _435
REMARK  183  A    between atoms: _435  and  _436
REMARK  184  A    between atoms: _438  and  _440
REMARK  185  A    between atoms: _440  and  _441
REMARK  186  A    between atoms: _443  and  _445
REMARK  187  A    between atoms: _445  and  _446
REMARK  188  A    between atoms: _445  and  _448
REMARK  189  A    between atoms: _451  and  _453
REMARK  190  A    between atoms: _453  and  _454
REMARK  191  A    between atoms: _453  and  _456
REMARK  192  A    between atoms: _459  and  _461
REMARK  193  A    between atoms: _461  and  _462
REMARK  194  A    between atoms: _461  and  _464
REMARK  195  A    between atoms: _464  and  _465
REMARK  196  A    between atoms: _469  and  _470
REMARK  197  A    between atoms: _475  and  _477
REMARK  198  A    between atoms: _477  and  _478
REMARK  199  A    between atoms: _477  and  _480
REMARK  200  A    between atoms: _480  and  _481
REMARK  201  A    between atoms: _485  and  _486
REMARK  202  A    between atoms: _491  and  _493
REMARK  203  A    between atoms: _493  and  _494
REMARK  204  A    between atoms: _497  and  _499
REMARK  205  A    between atoms: _499  and  _500
REMARK  206  A    between atoms: _499  and  _502
REMARK  207  A    between atoms: _502  and  _503
REMARK  208  A    between atoms: _508  and  _510
REMARK  209  A    between atoms: _510  and  _511
REMARK  210  A    between atoms: _510  and  _513
REMARK  211  A    between atoms: _513  and  _514
REMARK  212  A    between atoms: _517  and  _519
REMARK  213  A    between atoms: _519  and  _520
REMARK  214  A    between atoms: _519  and  _522
REMARK  215  A    between atoms: _522  and  _523
REMARK  216  A    between atoms: _526  and  _528
REMARK  217  A    between atoms: _528  and  _529
REMARK  218  A    between atoms: _531  and  _533
REMARK  219  A    between atoms: _533  and  _534
REMARK  220  A    between atoms: _533  and  _536
REMARK  221  A    between atoms: _536  and  _537
REMARK  222  A    between atoms: _537  and  _538
REMARK  223  A    between atoms: _538  and  _539
REMARK  224  A    between atoms: _548  and  _550
REMARK  225  A    between atoms: _550  and  _551
REMARK  226  A    between atoms: _550  and  _553
REMARK  227  A    between atoms: _553  and  _554
REMARK                            x       y       z     vdW  Elec       q    Type
REMARK                         _______ _______ _______ _____ _____    ______ ____
ROOT
ATOM      1  C   ALA A   6      18.534  49.713  -9.367  0.00  0.00    +0.241 C 
ATOM      2  N   ASP A   7      19.682  50.165  -8.878  0.00  0.00    -0.297 N 
ATOM      3  H   ASP A   7      20.371  49.487  -8.495  0.00  0.00    +0.150 HD
ATOM      4  O   ALA A   6      17.652  50.461  -9.791  0.00  0.00    -0.273 OA
ENDROOT
BRANCH   1   5
ATOM      5  CA  ALA A   6      18.367  48.193  -9.411  0.00  0.00    +0.149 C 
ATOM      6  CB  ALA A   6      18.386  47.701 -10.832  0.00  0.00    +0.031 C 
BRANCH   5   9
ATOM      7  C   GLY A   5      17.153  47.179  -7.567  0.00  0.00    +0.243 C 
ATOM      8  O   GLY A   5      18.187  46.996  -6.935  0.00  0.00    -0.273 OA
ATOM      9  N   ALA A   6      17.142  47.752  -8.761  0.00  0.00    -0.297 N 
ATOM     10  H   ALA A   6      16.233  47.891  -9.247  0.00  0.00    +0.150 HD
BRANCH   7  11
ATOM     11  CA  GLY A   5      15.797  46.814  -6.977  0.00  0.00    +0.176 C 
BRANCH  11  14
ATOM     12  C   THR A   4      14.158  48.459  -7.755  0.00  0.00    +0.243 C 
ATOM     13  O   THR A   4      14.606  49.325  -7.010  0.00  0.00    -0.273 OA
ATOM     14  N   GLY A   5      14.660  47.225  -7.802  0.00  0.00    -0.295 N 
ATOM     15  H   GLY A   5      14.229  46.531  -8.446  0.00  0.00    +0.150 HD
BRANCH  12  16
ATOM     16  CA  THR A   4      13.011  48.780  -8.723  0.00  0.00    +0.176 C 
BRANCH  16  18
ATOM     17  C   ASP A   3      13.850  47.696 -10.728  0.00  0.00    +0.241 C 
ATOM     18  N   THR A   4      12.929  47.788  -9.782  0.00  0.00    -0.295 N 
ATOM     19  H   THR A   4      12.123  47.131  -9.797  0.00  0.00    +0.150 HD
ATOM     20  O   ASP A   3      14.856  48.411 -10.754  0.00  0.00    -0.273 OA
BRANCH  17  21
ATOM     21  CA  ASP A   3      13.610  46.620 -11.780  0.00  0.00    +0.160 C 
BRANCH  21  24
ATOM     22  C   LEU A   2      11.833  46.640 -13.468  0.00  0.00    +0.241 C 
ATOM     23  O   LEU A   2      11.139  45.840 -12.845  0.00  0.00    -0.273 OA
ATOM     24  N   ASP A   3      12.959  47.152 -12.978  0.00  0.00    -0.297 N 
ATOM     25  H   ASP A   3      13.393  47.962 -13.465  0.00  0.00    +0.150 HD
BRANCH  22  26
ATOM     26  CA  LEU A   2      11.449  47.097 -14.877  0.00  0.00    +0.149 C 
BRANCH  26  28
ATOM     27  C   LEU A   1      12.848  45.548 -16.111  0.00  0.00    +0.238 C 
ATOM     28  N   LEU A   2      11.631  45.936 -15.743  0.00  0.00    -0.297 N 
ATOM     29  H   LEU A   2      10.800  45.407 -16.076  0.00  0.00    +0.150 HD
ATOM     30  O   LEU A   1      13.856  46.197 -15.842  0.00  0.00    -0.274 OA
BRANCH  27  31
ATOM     31  CA  LEU A   1      12.966  44.208 -16.791  0.00  0.00    +0.145 C 
BRANCH  31  32
ATOM     32  N   LEU A   1      13.703  44.298 -18.050  0.00  0.00    -0.238 NA
ATOM     33  H   LEU A   1      14.741  44.233 -18.020  0.00  0.00    +0.142 HD
ENDBRANCH  31  32
BRANCH  31  34
ATOM     34  CB  LEU A   1      13.730  43.339 -15.801  0.00  0.00    +0.026 C 
BRANCH  34  35
ATOM     35  CG  LEU A   1      13.280  41.920 -15.511  0.00  0.00    +0.002 C 
ATOM     36  CD2 LEU A   1      14.249  41.308 -14.496  0.00  0.00    +0.000 C 
ATOM     37  CD1 LEU A   1      11.869  41.887 -14.995  0.00  0.00    +0.000 C 
ENDBRANCH  34  35
ENDBRANCH  31  34
ENDBRANCH  27  31
ENDBRANCH  26  28
BRANCH  26  38
ATOM     38  CB  LEU A   2      10.024  47.629 -14.933  0.00  0.00    +0.029 C 
BRANCH  38  39
ATOM     39  CG  LEU A   2       9.536  47.993 -16.333  0.00  0.00    +0.002 C 
ATOM     40  CD2 LEU A   2       8.081  48.459 -16.286  0.00  0.00    +0.000 C 
ATOM     41  CD1 LEU A   2      10.438  49.050 -16.960  0.00  0.00    +0.000 C 
ENDBRANCH  38  39
ENDBRANCH  26  38
ENDBRANCH  22  26
ENDBRANCH  21  24
BRANCH  21  42
ATOM     42  CB  ASP A   3      14.928  45.959 -12.197  0.00  0.00    +0.143 C 
BRANCH  42  43
ATOM     43  CG  ASP A   3      15.566  45.139 -11.100  0.00  0.00    +0.367 C 
ATOM     44  OD2 ASP A   3      15.074  45.164  -9.949  0.00  0.00    -0.246 OA
ATOM     45  OD1 ASP A   3      16.576  44.458 -11.402  0.00  0.00    -0.246 OA
ENDBRANCH  42  43
ENDBRANCH  21  42
ENDBRANCH  17  21
ENDBRANCH  16  18
BRANCH  16  46
ATOM     46  CB  THR A   4      11.685  48.864  -7.951  0.00  0.00    +0.137 C 
ATOM     47  CG2 THR A   4      10.532  49.300  -8.870  0.00  0.00    +0.034 C 
BRANCH  46  48
ATOM     48  OG1 THR A   4      11.382  47.592  -7.371  0.00  0.00    -0.382 OA
ATOM     49  HG1 THR A   4      12.108  47.333  -6.750  0.00  0.00    +0.210 HD
ENDBRANCH  46  48
ENDBRANCH  16  46
ENDBRANCH  12  16
ENDBRANCH  11  14
ENDBRANCH   7  11
ENDBRANCH   5   9
ENDBRANCH   1   5
BRANCH   2  50
ATOM     50  CA  ASP A   7      20.005  51.594  -8.863  0.00  0.00    +0.160 C 
BRANCH  50  51
ATOM     51  C   ASP A   7      20.140  52.106 -10.291  0.00  0.00    +0.241 C 
ATOM     52  O   ASP A   7      19.640  53.184 -10.627  0.00  0.00    -0.273 OA
ATOM     53  N   ASP A   8      20.833  51.314 -11.107  0.00  0.00    -0.297 N 
ATOM     54  H   ASP A   8      21.090  50.367 -10.763  0.00  0.00    +0.150 HD
BRANCH  53  55
ATOM     55  CA  ASP A   8      21.252  51.687 -12.445  0.00  0.00    +0.160 C 
BRANCH  55  56
ATOM     56  C   ASP A   8      20.689  50.722 -13.479  0.00  0.00    +0.241 C 
ATOM     57  O   ASP A   8      20.465  49.554 -13.201  0.00  0.00    -0.273 OA
ATOM     58  N   THR A   9      20.497  51.209 -14.683  0.00  0.00    -0.295 N 
ATOM     59  H   THR A   9      20.641  52.229 -14.825  0.00  0.00    +0.150 HD
BRANCH  58  60
ATOM     60  CA  THR A   9      20.096  50.413 -15.827  0.00  0.00    +0.176 C 
BRANCH  60  61
ATOM     61  C   THR A   9      21.328  49.663 -16.336  0.00  0.00    +0.243 C 
ATOM     62  O   THR A   9      22.407  50.251 -16.456  0.00  0.00    -0.273 OA
ATOM     63  N   VAL A  10      21.166  48.356 -16.545  0.00  0.00    -0.297 N 
ATOM     64  H   VAL A  10      20.227  47.944 -16.372  0.00  0.00    +0.150 HD
BRANCH  63  65
ATOM     65  CA  VAL A  10      22.234  47.471 -17.003  0.00  0.00    +0.149 C 
BRANCH  65  66
ATOM     66  C   VAL A  10      21.717  46.562 -18.114  0.00  0.00    +0.241 C 
ATOM     67  O   VAL A  10      20.766  45.815 -17.931  0.00  0.00    -0.273 OA
ATOM     68  N   LEU A  11      22.392  46.608 -19.253  0.00  0.00    -0.298 N 
ATOM     69  H   LEU A  11      23.234  47.215 -19.314  0.00  0.00    +0.150 HD
BRANCH  68  70
ATOM     70  CA  LEU A  11      21.996  45.840 -20.416  0.00  0.00    +0.137 C 
BRANCH  70  71
ATOM     71  C   LEU A  11      23.064  44.836 -20.834  0.00  0.00    +0.227 C 
ATOM     72  O   LEU A  11      24.261  45.038 -20.627  0.00  0.00    -0.286 OA
ENDBRANCH  70  71
BRANCH  70  73
ATOM     73  CB  LEU A  11      21.720  46.774 -21.586  0.00  0.00    +0.028 C 
BRANCH  73  74
ATOM     74  CG  LEU A  11      20.641  47.832 -21.381  0.00  0.00    +0.002 C 
ATOM     75  CD2 LEU A  11      19.383  47.243 -20.803  0.00  0.00    +0.000 C 
ATOM     76  CD1 LEU A  11      20.351  48.471 -22.724  0.00  0.00    +0.000 C 
ENDBRANCH  73  74
ENDBRANCH  70  73
ENDBRANCH  68  70
ENDBRANCH  65  66
BRANCH  65  77
ATOM     77  CB  VAL A  10      22.782  46.551 -15.884  0.00  0.00    +0.027 C 
ATOM     78  CG2 VAL A  10      23.017  47.327 -14.622  0.00  0.00    +0.002 C 
ATOM     79  CG1 VAL A  10      24.087  45.879 -16.343  0.00  0.00    +0.002 C 
ENDBRANCH  65  77
ENDBRANCH  63  65
ENDBRANCH  60  61
BRANCH  60  80
ATOM     80  CB  THR A   9      19.503  51.348 -16.917  0.00  0.00    +0.137 C 
ATOM     81  CG2 THR A   9      19.243  50.613 -18.237  0.00  0.00    +0.034 C 
BRANCH  80  82
ATOM     82  OG1 THR A   9      18.266  51.911 -16.438  0.00  0.00    -0.382 OA
ATOM     83  HG1 THR A   9      18.439  52.430 -15.613  0.00  0.00    +0.210 HD
ENDBRANCH  80  82
ENDBRANCH  60  80
ENDBRANCH  58  60
ENDBRANCH  55  56
BRANCH  55  84
ATOM     84  CB  ASP A   8      22.782  51.647 -12.557  0.00  0.00    +0.143 C 
BRANCH  84  85
ATOM     85  CG  ASP A   8      23.483  52.263 -11.363  0.00  0.00    +0.367 C 
ATOM     86  OD2 ASP A   8      24.307  51.560 -10.711  0.00  0.00    -0.246 OA
ATOM     87  OD1 ASP A   8      23.270  53.472 -11.134  0.00  0.00    -0.246 OA
ENDBRANCH  84  85
ENDBRANCH  55  84
ENDBRANCH  53  55
ENDBRANCH  50  51
BRANCH  50  88
ATOM     88  CB  ASP A   7      21.330  51.857  -8.145  0.00  0.00    +0.143 C 
BRANCH  88  89
ATOM     89  CG  ASP A   7      21.281  51.564  -6.663  0.00  0.00    +0.367 C 
ATOM     90  OD2 ASP A   7      20.199  51.610  -6.051  0.00  0.00    -0.246 OA
ATOM     91  OD1 ASP A   7      22.355  51.280  -6.103  0.00  0.00    -0.246 OA
ENDBRANCH  88  89
ENDBRANCH  50  88
ENDBRANCH   2  50
TORSDOF 39
REMARK  Name = ../refined-set-2016/3ekt/3ekt_pocket.pdb
REMARK  227 active torsions:
REMARK  status: ('A' for Active; 'I' for Inactive)
REMARK    1  A    between atoms: _1  and  _3
REMARK    2  A    between atoms: _3  and  _4
REMARK    3  A    between atoms: _3  and  _6
REMARK    4  A    between atoms: _6  and  _7
REMARK    5  A    between atoms: _7  and  _8
REMARK    6  A    between atoms: _8  and  _9
REMARK    7  A    between atoms: _18  and  _20
REMARK    8  A    between atoms: _20  and  _21
REMARK    9  A    between atoms: _20  and  _23
REMARK   10  A    between atoms: _23  and  _24
REMARK   11  A    between atoms: _27  and  _29
REMARK   12  A    between atoms: _29  and  _30
REMARK   13  A    between atoms: _29  and  _32
REMARK   14  A    between atoms: _32  and  _33
REMARK   15  A    between atoms: _36  and  _38
REMARK   16  A    between atoms: _38  and  _39
REMARK   17  A    between atoms: _38  and  _41
REMARK   18  A    between atoms: _41  and  _42
REMARK   19  A    between atoms: _45  and  _47
REMARK   20  A    between atoms: _47  and  _48
REMARK   21  A    between atoms: _47  and  _50
REMARK   22  A    between atoms: _50  and  _51
REMARK   23  A    between atoms: _54  and  _56
REMARK   24  A    between atoms: _56  and  _57
REMARK   25  A    between atoms: _59  and  _61
REMARK   26  A    between atoms: _61  and  _62
REMARK   27  A    between atoms: _65  and  _67
REMARK   28  A    between atoms: _67  and  _68
REMARK   29  A    between atoms: _67  and  _70
REMARK   30  A    between atoms: _70  and  _71
REMARK   31  A    between atoms: _74  and  _76
REMARK   32  A    between atoms: _76  and  _77
REMARK   33  A    between atoms: _76  and  _79
REMARK   34  A    between atoms: _79  and  _80
REMARK   35  A    between atoms: _83  and  _85
REMARK   36  A    between atoms: _85  and  _86
REMARK   37  A    between atoms: _85  and  _88
REMARK   38  A    between atoms: _88  and  _89
REMARK   39  A    between atoms: _92  and  _94
REMARK   40  A    between atoms: _94  and  _95
REMARK   41  A    between atoms: _94  and  _97
REMARK   42  A    between atoms: _100  and  _102
REMARK   43  A    between atoms: _102  and  _103
REMARK   44  A    between atoms: _102  and  _105
REMARK   45  A    between atoms: _105  and  _106
REMARK   46  A    between atoms: _106  and  _107
REMARK   47  A    between atoms: _107  and  _108
REMARK   48  A    between atoms: _108  and  _109
REMARK   49  A    between atoms: _113  and  _115
REMARK   50  A    between atoms: _115  and  _116
REMARK   51  A    between atoms: _115  and  _118
REMARK   52  A    between atoms: _118  and  _119
REMARK   53  A    between atoms: _119  and  _120
REMARK   54  A    between atoms: _122  and  _124
REMARK   55  A    between atoms: _124  and  _125
REMARK   56  A    between atoms: _124  and  _127
REMARK   57  A    between atoms: _127  and  _128
REMARK   58  A    between atoms: _131  and  _133
REMARK   59  A    between atoms: _133  and  _134
REMARK   60  A    between atoms: _133  and  _136
REMARK   61  A    between atoms: _139  and  _141
REMARK   62  A    between atoms: _141  and  _142
REMARK   63  A    between atoms: _144  and  _146
REMARK   64  A    between atoms: _146  and  _147
REMARK   65  A    between atoms: _146  and  _149
REMARK   66  A    between atoms: _149  and  _150
REMARK   67  A    between atoms: _153  and  _155
REMARK   68  A    between atoms: _155  and  _156
REMARK   69  A    between atoms: _158  and  _160
REMARK   70  A    between atoms: _160  and  _161
REMARK   71  A    between atoms: _163  and  _165
REMARK   72  A    between atoms: _165  and  _166
REMARK   73  A    between atoms: _165  and  _168
REMARK   74  A    between atoms: _171  and  _173
REMARK   75  A    between atoms: _173  and  _174
REMARK   76  A    between atoms: _173  and  _176
REMARK   77  A    between atoms: _179  and  _181
REMARK   78  A    between atoms: _181  and  _182
REMARK   79  A    between atoms: _181  and  _184
REMARK   80  A    between atoms: _184  and  _185
REMARK   81  A    between atoms: _188  and  _190
REMARK   82  A    between atoms: _190  and  _191
REMARK   83  A    between atoms: _190  and  _193
REMARK   84  A    between atoms: _193  and  _194
REMARK   85  A    between atoms: _198  and  _199
REMARK   86  A    between atoms: _204  and  _206
REMARK   87  A    between atoms: _206  and  _207
REMARK   88  A    between atoms: _210  and  _212
REMARK   89  A    between atoms: _212  and  _213
REMARK   90  A    between atoms: _212  and  _215
REMARK   91  A    between atoms: _215  and  _216
REMARK   92  A    between atoms: _221  and  _223
REMARK   93  A    between atoms: _223  and  _224
REMARK   94  A    between atoms: _223  and  _226
REMARK   95  A    between atoms: _226  and  _227
REMARK   96  A    between atoms: _230  and  _232
REMARK   97  A    between atoms: _232  and  _233
REMARK   98  A    between atoms: _232  and  _235
REMARK   99  A    between atoms: _235  and  _236
REMARK  100  A    between atoms: _239  and  _241
REMARK  101  A    between atoms: _241  and  _242
REMARK  102  A    between atoms: _244  and  _246
REMARK  103  A    between atoms: _246  and  _247
REMARK  104  A    between atoms: _246  and  _249
REMARK  105  A    between atoms: _249  and  _250
REMARK  106  A    between atoms: _250  and  _251
REMARK  107  A    between atoms: _251  and  _252
REMARK  108  A    between atoms: _261  and  _263
REMARK  109  A    between atoms: _263  and  _264
REMARK  110  A    between atoms: _263  and  _266
REMARK  111  A    between atoms: _266  and  _267
REMARK  112  A    between atoms: _272  and  _274
REMARK  113  A    between atoms: _274  and  _275
REMARK  114  A    between atoms: _274  and  _277
REMARK  115  A    between atoms: _277  and  _278
REMARK  116  A    between atoms: _278  and  _279
REMARK  117  A    between atoms: _279  and  _280
REMARK  118  A    between atoms: _289  and  _291
REMARK  119  A    between atoms: _291  and  _292
REMARK  120  A    between atoms: _291  and  _294
REMARK  121  A    between atoms: _294  and  _295
REMARK  122  A    between atoms: _298  and  _300
REMARK  123  A    between atoms: _300  and  _301
REMARK  124  A    between atoms: _300  and  _303
REMARK  125  A    between atoms: _303  and  _304
REMARK  126  A    between atoms: _307  and  _309
REMARK  127  A    between atoms: _309  and  _310
REMARK  128  A    between atoms: _309  and  _312
REMARK  129  A    between atoms: _312  and  _313
REMARK  130  A    between atoms: _316  and  _318
REMARK  131  A    between atoms: _318  and  _319
REMARK  132  A    between atoms: _318  and  _321
REMARK  133  A    between atoms: _321  and  _322
REMARK  134  A    between atoms: _325  and  _327
REMARK  135  A    between atoms: _327  and  _328
REMARK  136  A    between atoms: _330  and  _332
REMARK  137  A    between atoms: _332  and  _333
REMARK  138  A    between atoms: _336  and  _338
REMARK  139  A    between atoms: _338  and  _339
REMARK  140  A    between atoms: _338  and  _341
REMARK  141  A    between atoms: _341  and  _342
REMARK  142  A    between atoms: _345  and  _347
REMARK  143  A    between atoms: _347  and  _348
REMARK  144  A    between atoms: _347  and  _350
REMARK  145  A    between atoms: _350  and  _351
REMARK  146  A    between atoms: _354  and  _356
REMARK  147  A    between atoms: _356  and  _357
REMARK  148  A    between atoms: _356  and  _359
REMARK  149  A    between atoms: _359  and  _360
REMARK  150  A    between atoms: _363  and  _365
REMARK  151  A    between atoms: _365  and  _366
REMARK  152  A    between atoms: _365  and  _368
REMARK  153  A    between atoms: _371  and  _373
REMARK  154  A    between atoms: _373  and  _374
REMARK  155  A    between atoms: _373  and  _376
REMARK  156  A    between atoms: _376  and  _377
REMARK  157  A    between atoms: _380  and  _382
REMARK  158  A    between atoms: _382  and  _383
REMARK  159  A    between atoms: _382  and  _385
REMARK  160  A    between atoms: _385  and  _386
REMARK  161  A    between atoms: _386  and  _387
REMARK  162  A    between atoms: _387  and  _388
REMARK  163  A    between atoms: _388  and  _389
REMARK  164  A    between atoms: _393  and  _395
REMARK  165  A    between atoms: _395  and  _396
REMARK  166  A    between atoms: _395  and  _398
REMARK  167  A    between atoms: _398  and  _399
REMARK  168  A    between atoms: _399  and  _400
REMARK  169  A    between atoms: _402  and  _404
REMARK  170  A    between atoms: _404  and  _405
REMARK  171  A    between atoms: _404  and  _407
REMARK  172  A    between atoms: _407  and  _408
REMARK  173  A    between atoms: _411  and  _413
REMARK  174  A    between atoms: _413  and  _414
REMARK  175  A    between atoms: _413  and  _416
REMARK  176  A    between atoms: _419  and  _421
REMARK  177  A    between atoms: _421  and  _422
REMARK  178  A    between atoms: _424  and  _426
REMARK  179  A    between atoms: _426  and  _427
REMARK  180  A    between atoms: _426  and  _429
REMARK  181  A    between atoms: _429  and  _430
REMARK  182  A    between atoms: _433  and  _435
REMARK  183  A    between atoms: _435  and  _436
REMARK  184  A    between atoms: _438  and  _440
REMARK  185  A    between atoms: _440  and  _441
REMARK  186  A    between atoms: _443  and  _445
REMARK  187  A    between atoms: _445  and  _446
REMARK  188  A    between atoms: _445  and  _448
REMARK  189  A    between atoms: _451  and  _453
REMARK  190  A    between atoms: _453  and  _454
REMARK  191  A    between atoms: _453  and  _456
REMARK  192  A    between atoms: _459  and  _461
REMARK  193  A    between atoms: _461  and  _462
REMARK  194  A    between atoms: _461  and  _464
REMARK  195  A    between atoms: _464  and  _465
REMARK  196  A    between atoms: _469  and  _470
REMARK  197  A    between atoms: _475  and  _477
REMARK  198  A    between atoms: _477  and  _478
REMARK  199  A    between atoms: _477  and  _480
REMARK  200  A    between atoms: _480  and  _481
REMARK  201  A    between atoms: _485  and  _486
REMARK  202  A    between atoms: _491  and  _493
REMARK  203  A    between atoms: _493  and  _494
REMARK  204  A    between atoms: _497  and  _499
REMARK  205  A    between atoms: _499  and  _500
REMARK  206  A    between atoms: _499  and  _502
REMARK  207  A    between atoms: _502  and  _503
REMARK  208  A    between atoms: _508  and  _510
REMARK  209  A    between atoms: _510  and  _511
REMARK  210  A    between atoms: _510  and  _513
REMARK  211  A    between atoms: _513  and  _514
REMARK  212  A    between atoms: _517  and  _519
REMARK  213  A    between atoms: _519  and  _520
REMARK  214  A    between atoms: _519  and  _522
REMARK  215  A    between atoms: _522  and  _523
REMARK  216  A    between atoms: _526  and  _528
REMARK  217  A    between atoms: _528  and  _529
REMARK  218  A    between atoms: _531  and  _533
REMARK  219  A    between atoms: _533  and  _534
REMARK  220  A    between atoms: _533  and  _536
REMARK  221  A    between atoms: _536  and  _537
REMARK  222  A    between atoms: _537  and  _538
REMARK  223  A    between atoms: _538  and  _539
REMARK  224  A    between atoms: _548  and  _550
REMARK  225  A    between atoms: _550  and  _551
REMARK  226  A    between atoms: _550  and  _553
REMARK  227  A    between atoms: _553  and  _554
REMARK                            x       y       z     vdW  Elec       q    Type
REMARK                         _______ _______ _______ _____ _____    ______ ____
ROOT
ATOM      1  C   ILE A   3      28.410  45.888  -8.744  0.00  0.00    +0.241 C 
ATOM      2  N   VAL A   4      27.479  45.755  -7.807  0.00  0.00    -0.297 N 
ATOM      3  H   VAL A   4      26.815  46.536  -7.633  0.00  0.00    +0.150 HD
ATOM      4  O   ILE A   3      29.282  45.035  -8.957  0.00  0.00    -0.273 OA
ENDROOT
BRANCH   2   5
ATOM      5  CA  VAL A   4      27.371  44.536  -7.019  0.00  0.00    +0.149 C 
BRANCH   5   6
ATOM      6  C   VAL A   4      25.953  43.993  -7.087  0.00  0.00    +0.241 C 
ATOM      7  N   GLY A   5      25.847  42.671  -7.088  0.00  0.00    -0.295 N 
ATOM      8  H   GLY A   5      26.711  42.092  -7.077  0.00  0.00    +0.150 HD
ATOM      9  O   VAL A   4      24.981  44.746  -7.157  0.00  0.00    -0.273 OA
BRANCH   7  10
ATOM     10  CA  GLY A   5      24.552  42.014  -7.104  0.00  0.00    +0.176 C 
BRANCH  10  11
ATOM     11  C   GLY A   5      24.664  40.736  -6.325  0.00  0.00    +0.243 C 
ATOM     12  O   GLY A   5      25.695  40.471  -5.700  0.00  0.00    -0.273 OA
ATOM     13  N   ILE A   6      23.592  39.952  -6.339  0.00  0.00    -0.297 N 
ATOM     14  H   ILE A   6      22.689  40.332  -6.689  0.00  0.00    +0.150 HD
BRANCH  13  15
ATOM     15  CA  ILE A   6      23.651  38.572  -5.876  0.00  0.00    +0.149 C 
BRANCH  15  16
ATOM     16  C   ILE A   6      24.562  37.810  -6.819  0.00  0.00    +0.241 C 
ATOM     17  N   GLY A   7      25.694  37.362  -6.294  0.00  0.00    -0.295 N 
ATOM     18  H   GLY A   7      25.832  37.417  -5.265  0.00  0.00    +0.150 HD
ATOM     19  O   ILE A   6      24.256  37.652  -7.996  0.00  0.00    -0.273 OA
BRANCH  17  20
ATOM     20  CA  GLY A   7      26.748  36.795  -7.123  0.00  0.00    +0.176 C 
BRANCH  20  21
ATOM     21  C   GLY A   7      28.060  37.553  -7.027  0.00  0.00    +0.243 C 
ATOM     22  N   GLY A   8      28.029  38.786  -6.521  0.00  0.00    -0.296 N 
ATOM     23  H   GLY A   8      27.120  39.221  -6.263  0.00  0.00    +0.150 HD
ATOM     24  O   GLY A   7      29.103  37.028  -7.416  0.00  0.00    -0.273 OA
BRANCH  22  25
ATOM     25  CA  GLY A   8      29.278  39.526  -6.330  0.00  0.00    +0.163 C 
BRANCH  25  26
ATOM     26  C   GLY A   8      29.408  40.772  -7.182  0.00  0.00    +0.229 C 
ATOM     27  O   GLY A   8      28.421  41.301  -7.674  0.00  0.00    -0.286 OA
ENDBRANCH  25  26
ENDBRANCH  22  25
ENDBRANCH  20  21
ENDBRANCH  17  20
ENDBRANCH  15  16
BRANCH  15  28
ATOM     28  CB  ILE A   6      22.254  37.915  -5.850  0.00  0.00    +0.027 C 
ATOM     29  CG2 ILE A   6      22.364  36.391  -5.919  0.00  0.00    +0.002 C 
BRANCH  28  30
ATOM     30  CG1 ILE A   6      21.509  38.315  -4.577  0.00  0.00    +0.002 C 
ATOM     31  CD1 ILE A   6      20.008  38.162  -4.685  0.00  0.00    +0.000 C 
ENDBRANCH  28  30
ENDBRANCH  15  28
ENDBRANCH  13  15
ENDBRANCH  10  11
ENDBRANCH   7  10
ENDBRANCH   5   6
BRANCH   5  32
ATOM     32  CB  VAL A   4      27.801  44.762  -5.541  0.00  0.00    +0.027 C 
ATOM     33  CG2 VAL A   4      27.967  43.435  -4.811  0.00  0.00    +0.002 C 
ATOM     34  CG1 VAL A   4      26.828  45.647  -4.820  0.00  0.00    +0.002 C 
ENDBRANCH   5  32
ENDBRANCH   2   5
BRANCH   1  35
ATOM     35  CA  ILE A   3      28.404  47.208  -9.512  0.00  0.00    +0.149 C 
BRANCH  35  38
ATOM     36  C   MET A   2      30.416  48.390 -10.213  0.00  0.00    +0.241 C 
ATOM     37  O   MET A   2      30.079  49.435  -9.657  0.00  0.00    -0.273 OA
ATOM     38  N   ILE A   3      29.647  47.310 -10.256  0.00  0.00    -0.297 N 
ATOM     39  H   ILE A   3      29.945  46.506 -10.845  0.00  0.00    +0.150 HD
BRANCH  36  40
ATOM     40  CA  MET A   2      31.758  48.266 -10.922  0.00  0.00    +0.149 C 
BRANCH  40  42
ATOM     41  C   LYS A   1      32.207  49.583 -12.935  0.00  0.00    +0.238 C 
ATOM     42  N   MET A   2      32.130  49.508 -11.608  0.00  0.00    -0.297 N 
ATOM     43  H   MET A   2      32.340  50.355 -11.041  0.00  0.00    +0.150 HD
ATOM     44  O   LYS A   1      32.238  48.593 -13.664  0.00  0.00    -0.274 OA
BRANCH  41  45
ATOM     45  CA  LYS A   1      32.314  50.986 -13.534  0.00  0.00    +0.145 C 
BRANCH  45  46
ATOM     46  N   LYS A   1      32.991  50.901 -14.817  0.00  0.00    -0.238 NA
ATOM     47  H   LYS A   1      32.690  50.174 -15.497  0.00  0.00    +0.142 HD
ENDBRANCH  45  46
BRANCH  45  48
ATOM     48  CB  LYS A   1      30.924  51.594 -13.727  0.00  0.00    +0.026 C 
BRANCH  48  49
ATOM     49  CG  LYS A   1      30.218  51.979 -12.444  0.00  0.00    -0.000 C 
BRANCH  49  50
ATOM     50  CD  LYS A   1      28.723  52.240 -12.679  0.00  0.00    -0.024 C 
BRANCH  50  51
ATOM     51  CE  LYS A   1      27.978  52.497 -11.370  0.00  0.00    -0.086 C 
BRANCH  51  52
ATOM     52  NZ  LYS A   1      28.327  53.808 -10.760  0.00  0.00    +0.380 N 
ATOM     53  HZ1 LYS A   1      27.794  53.930  -9.876  0.00  0.00    -0.089 HD
ATOM     54  HZ2 LYS A   1      29.347  53.834 -10.558  0.00  0.00    -0.089 HD
ATOM     55  HZ3 LYS A   1      28.084  54.573 -11.422  0.00  0.00    -0.089 HD
ENDBRANCH  51  52
ENDBRANCH  50  51
ENDBRANCH  49  50
ENDBRANCH  48  49
ENDBRANCH  45  48
ENDBRANCH  41  45
ENDBRANCH  40  42
BRANCH  40  56
ATOM     56  CB  MET A   2      32.826  47.845  -9.906  0.00  0.00    +0.041 C 
BRANCH  56  57
ATOM     57  CG  MET A   2      33.983  47.088 -10.511  0.00  0.00    +0.060 C 
BRANCH  57  58
ATOM     58  SD  MET A   2      34.418  45.581  -9.608  0.00  0.00    -0.139 S 
ATOM     59  CE  MET A   2      34.484  46.164  -7.918  0.00  0.00    +0.069 C 
ENDBRANCH  57  58
ENDBRANCH  56  57
ENDBRANCH  40  56
ENDBRANCH  36  40
ENDBRANCH  35  38
BRANCH  35  60
ATOM     60  CB  ILE A   3      27.175  47.255 -10.444  0.00  0.00    +0.027 C 
ATOM     61  CG2 ILE A   3      27.053  48.632 -11.075  0.00  0.00    +0.002 C 
BRANCH  60  62
ATOM     62  CG1 ILE A   3      27.295  46.174 -11.519  0.00  0.00    +0.002 C 
ATOM     63  CD1 ILE A   3      26.071  46.030 -12.387  0.00  0.00    +0.000 C 
ENDBRANCH  60  62
ENDBRANCH  35  60
ENDBRANCH   1  35
TORSDOF 29
REMARK  Name = ../refined-set-2016/3ekt/3ekt_pocket.pdb
REMARK  227 active torsions:
REMARK  status: ('A' for Active; 'I' for Inactive)
REMARK    1  A    between atoms: _1  and  _3
REMARK    2  A    between atoms: _3  and  _4
REMARK    3  A    between atoms: _3  and  _6
REMARK    4  A    between atoms: _6  and  _7
REMARK    5  A    between atoms: _7  and  _8
REMARK    6  A    between atoms: _8  and  _9
REMARK    7  A    between atoms: _18  and  _20
REMARK    8  A    between atoms: _20  and  _21
REMARK    9  A    between atoms: _20  and  _23
REMARK   10  A    between atoms: _23  and  _24
REMARK   11  A    between atoms: _27  and  _29
REMARK   12  A    between atoms: _29  and  _30
REMARK   13  A    between atoms: _29  and  _32
REMARK   14  A    between atoms: _32  and  _33
REMARK   15  A    between atoms: _36  and  _38
REMARK   16  A    between atoms: _38  and  _39
REMARK   17  A    between atoms: _38  and  _41
REMARK   18  A    between atoms: _41  and  _42
REMARK   19  A    between atoms: _45  and  _47
REMARK   20  A    between atoms: _47  and  _48
REMARK   21  A    between atoms: _47  and  _50
REMARK   22  A    between atoms: _50  and  _51
REMARK   23  A    between atoms: _54  and  _56
REMARK   24  A    between atoms: _56  and  _57
REMARK   25  A    between atoms: _59  and  _61
REMARK   26  A    between atoms: _61  and  _62
REMARK   27  A    between atoms: _65  and  _67
REMARK   28  A    between atoms: _67  and  _68
REMARK   29  A    between atoms: _67  and  _70
REMARK   30  A    between atoms: _70  and  _71
REMARK   31  A    between atoms: _74  and  _76
REMARK   32  A    between atoms: _76  and  _77
REMARK   33  A    between atoms: _76  and  _79
REMARK   34  A    between atoms: _79  and  _80
REMARK   35  A    between atoms: _83  and  _85
REMARK   36  A    between atoms: _85  and  _86
REMARK   37  A    between atoms: _85  and  _88
REMARK   38  A    between atoms: _88  and  _89
REMARK   39  A    between atoms: _92  and  _94
REMARK   40  A    between atoms: _94  and  _95
REMARK   41  A    between atoms: _94  and  _97
REMARK   42  A    between atoms: _100  and  _102
REMARK   43  A    between atoms: _102  and  _103
REMARK   44  A    between atoms: _102  and  _105
REMARK   45  A    between atoms: _105  and  _106
REMARK   46  A    between atoms: _106  and  _107
REMARK   47  A    between atoms: _107  and  _108
REMARK   48  A    between atoms: _108  and  _109
REMARK   49  A    between atoms: _113  and  _115
REMARK   50  A    between atoms: _115  and  _116
REMARK   51  A    between atoms: _115  and  _118
REMARK   52  A    between atoms: _118  and  _119
REMARK   53  A    between atoms: _119  and  _120
REMARK   54  A    between atoms: _122  and  _124
REMARK   55  A    between atoms: _124  and  _125
REMARK   56  A    between atoms: _124  and  _127
REMARK   57  A    between atoms: _127  and  _128
REMARK   58  A    between atoms: _131  and  _133
REMARK   59  A    between atoms: _133  and  _134
REMARK   60  A    between atoms: _133  and  _136
REMARK   61  A    between atoms: _139  and  _141
REMARK   62  A    between atoms: _141  and  _142
REMARK   63  A    between atoms: _144  and  _146
REMARK   64  A    between atoms: _146  and  _147
REMARK   65  A    between atoms: _146  and  _149
REMARK   66  A    between atoms: _149  and  _150
REMARK   67  A    between atoms: _153  and  _155
REMARK   68  A    between atoms: _155  and  _156
REMARK   69  A    between atoms: _158  and  _160
REMARK   70  A    between atoms: _160  and  _161
REMARK   71  A    between atoms: _163  and  _165
REMARK   72  A    between atoms: _165  and  _166
REMARK   73  A    between atoms: _165  and  _168
REMARK   74  A    between atoms: _171  and  _173
REMARK   75  A    between atoms: _173  and  _174
REMARK   76  A    between atoms: _173  and  _176
REMARK   77  A    between atoms: _179  and  _181
REMARK   78  A    between atoms: _181  and  _182
REMARK   79  A    between atoms: _181  and  _184
REMARK   80  A    between atoms: _184  and  _185
REMARK   81  A    between atoms: _188  and  _190
REMARK   82  A    between atoms: _190  and  _191
REMARK   83  A    between atoms: _190  and  _193
REMARK   84  A    between atoms: _193  and  _194
REMARK   85  A    between atoms: _198  and  _199
REMARK   86  A    between atoms: _204  and  _206
REMARK   87  A    between atoms: _206  and  _207
REMARK   88  A    between atoms: _210  and  _212
REMARK   89  A    between atoms: _212  and  _213
REMARK   90  A    between atoms: _212  and  _215
REMARK   91  A    between atoms: _215  and  _216
REMARK   92  A    between atoms: _221  and  _223
REMARK   93  A    between atoms: _223  and  _224
REMARK   94  A    between atoms: _223  and  _226
REMARK   95  A    between atoms: _226  and  _227
REMARK   96  A    between atoms: _230  and  _232
REMARK   97  A    between atoms: _232  and  _233
REMARK   98  A    between atoms: _232  and  _235
REMARK   99  A    between atoms: _235  and  _236
REMARK  100  A    between atoms: _239  and  _241
REMARK  101  A    between atoms: _241  and  _242
REMARK  102  A    between atoms: _244  and  _246
REMARK  103  A    between atoms: _246  and  _247
REMARK  104  A    between atoms: _246  and  _249
REMARK  105  A    between atoms: _249  and  _250
REMARK  106  A    between atoms: _250  and  _251
REMARK  107  A    between atoms: _251  and  _252
REMARK  108  A    between atoms: _261  and  _263
REMARK  109  A    between atoms: _263  and  _264
REMARK  110  A    between atoms: _263  and  _266
REMARK  111  A    between atoms: _266  and  _267
REMARK  112  A    between atoms: _272  and  _274
REMARK  113  A    between atoms: _274  and  _275
REMARK  114  A    between atoms: _274  and  _277
REMARK  115  A    between atoms: _277  and  _278
REMARK  116  A    between atoms: _278  and  _279
REMARK  117  A    between atoms: _279  and  _280
REMARK  118  A    between atoms: _289  and  _291
REMARK  119  A    between atoms: _291  and  _292
REMARK  120  A    between atoms: _291  and  _294
REMARK  121  A    between atoms: _294  and  _295
REMARK  122  A    between atoms: _298  and  _300
REMARK  123  A    between atoms: _300  and  _301
REMARK  124  A    between atoms: _300  and  _303
REMARK  125  A    between atoms: _303  and  _304
REMARK  126  A    between atoms: _307  and  _309
REMARK  127  A    between atoms: _309  and  _310
REMARK  128  A    between atoms: _309  and  _312
REMARK  129  A    between atoms: _312  and  _313
REMARK  130  A    between atoms: _316  and  _318
REMARK  131  A    between atoms: _318  and  _319
REMARK  132  A    between atoms: _318  and  _321
REMARK  133  A    between atoms: _321  and  _322
REMARK  134  A    between atoms: _325  and  _327
REMARK  135  A    between atoms: _327  and  _328
REMARK  136  A    between atoms: _330  and  _332
REMARK  137  A    between atoms: _332  and  _333
REMARK  138  A    between atoms: _336  and  _338
REMARK  139  A    between atoms: _338  and  _339
REMARK  140  A    between atoms: _338  and  _341
REMARK  141  A    between atoms: _341  and  _342
REMARK  142  A    between atoms: _345  and  _347
REMARK  143  A    between atoms: _347  and  _348
REMARK  144  A    between atoms: _347  and  _350
REMARK  145  A    between atoms: _350  and  _351
REMARK  146  A    between atoms: _354  and  _356
REMARK  147  A    between atoms: _356  and  _357
REMARK  148  A    between atoms: _356  and  _359
REMARK  149  A    between atoms: _359  and  _360
REMARK  150  A    between atoms: _363  and  _365
REMARK  151  A    between atoms: _365  and  _366
REMARK  152  A    between atoms: _365  and  _368
REMARK  153  A    between atoms: _371  and  _373
REMARK  154  A    between atoms: _373  and  _374
REMARK  155  A    between atoms: _373  and  _376
REMARK  156  A    between atoms: _376  and  _377
REMARK  157  A    between atoms: _380  and  _382
REMARK  158  A    between atoms: _382  and  _383
REMARK  159  A    between atoms: _382  and  _385
REMARK  160  A    between atoms: _385  and  _386
REMARK  161  A    between atoms: _386  and  _387
REMARK  162  A    between atoms: _387  and  _388
REMARK  163  A    between atoms: _388  and  _389
REMARK  164  A    between atoms: _393  and  _395
REMARK  165  A    between atoms: _395  and  _396
REMARK  166  A    between atoms: _395  and  _398
REMARK  167  A    between atoms: _398  and  _399
REMARK  168  A    between atoms: _399  and  _400
REMARK  169  A    between atoms: _402  and  _404
REMARK  170  A    between atoms: _404  and  _405
REMARK  171  A    between atoms: _404  and  _407
REMARK  172  A    between atoms: _407  and  _408
REMARK  173  A    between atoms: _411  and  _413
REMARK  174  A    between atoms: _413  and  _414
REMARK  175  A    between atoms: _413  and  _416
REMARK  176  A    between atoms: _419  and  _421
REMARK  177  A    between atoms: _421  and  _422
REMARK  178  A    between atoms: _424  and  _426
REMARK  179  A    between atoms: _426  and  _427
REMARK  180  A    between atoms: _426  and  _429
REMARK  181  A    between atoms: _429  and  _430
REMARK  182  A    between atoms: _433  and  _435
REMARK  183  A    between atoms: _435  and  _436
REMARK  184  A    between atoms: _438  and  _440
REMARK  185  A    between atoms: _440  and  _441
REMARK  186  A    between atoms: _443  and  _445
REMARK  187  A    between atoms: _445  and  _446
REMARK  188  A    between atoms: _445  and  _448
REMARK  189  A    between atoms: _451  and  _453
REMARK  190  A    between atoms: _453  and  _454
REMARK  191  A    between atoms: _453  and  _456
REMARK  192  A    between atoms: _459  and  _461
REMARK  193  A    between atoms: _461  and  _462
REMARK  194  A    between atoms: _461  and  _464
REMARK  195  A    between atoms: _464  and  _465
REMARK  196  A    between atoms: _469  and  _470
REMARK  197  A    between atoms: _475  and  _477
REMARK  198  A    between atoms: _477  and  _478
REMARK  199  A    between atoms: _477  and  _480
REMARK  200  A    between atoms: _480  and  _481
REMARK  201  A    between atoms: _485  and  _486
REMARK  202  A    between atoms: _491  and  _493
REMARK  203  A    between atoms: _493  and  _494
REMARK  204  A    between atoms: _497  and  _499
REMARK  205  A    between atoms: _499  and  _500
REMARK  206  A    between atoms: _499  and  _502
REMARK  207  A    between atoms: _502  and  _503
REMARK  208  A    between atoms: _508  and  _510
REMARK  209  A    between atoms: _510  and  _511
REMARK  210  A    between atoms: _510  and  _513
REMARK  211  A    between atoms: _513  and  _514
REMARK  212  A    between atoms: _517  and  _519
REMARK  213  A    between atoms: _519  and  _520
REMARK  214  A    between atoms: _519  and  _522
REMARK  215  A    between atoms: _522  and  _523
REMARK  216  A    between atoms: _526  and  _528
REMARK  217  A    between atoms: _528  and  _529
REMARK  218  A    between atoms: _531  and  _533
REMARK  219  A    between atoms: _533  and  _534
REMARK  220  A    between atoms: _533  and  _536
REMARK  221  A    between atoms: _536  and  _537
REMARK  222  A    between atoms: _537  and  _538
REMARK  223  A    between atoms: _538  and  _539
REMARK  224  A    between atoms: _548  and  _550
REMARK  225  A    between atoms: _550  and  _551
REMARK  226  A    between atoms: _550  and  _553
REMARK  227  A    between atoms: _553  and  _554
REMARK                            x       y       z     vdW  Elec       q    Type
REMARK                         _______ _______ _______ _____ _____    ______ ____
ROOT
ATOM      1  CA  VAL A   1      30.617  42.866 -11.849  0.00  0.00    +0.133 C 
ENDROOT
BRANCH   1   2
ATOM      2  CB  VAL A   1      29.231  42.516 -12.396  0.00  0.00    +0.023 C 
ATOM      3  CG2 VAL A   1      28.720  41.223 -11.763  0.00  0.00    +0.002 C 
ATOM      4  CG1 VAL A   1      29.270  42.395 -13.908  0.00  0.00    +0.002 C 
ENDBRANCH   1   2
BRANCH   1   5
ATOM      5  N   VAL A   1      30.589  43.058 -10.405  0.00  0.00    -0.239 NA
ATOM      6  H   VAL A   1      30.213  43.947 -10.017  0.00  0.00    +0.142 HD
ENDBRANCH   1   5
BRANCH   1   7
ATOM      7  C   VAL A   1      31.139  44.126 -12.516  0.00  0.00    +0.224 C 
ATOM      8  O   VAL A   1      30.717  45.240 -12.194  0.00  0.00    -0.287 OA
ENDBRANCH   1   7
TORSDOF 3
REMARK  Name = ../refined-set-2016/3ekt/3ekt_pocket.pdb
REMARK  227 active torsions:
REMARK  status: ('A' for Active; 'I' for Inactive)
REMARK    1  A    between atoms: _1  and  _3
REMARK    2  A    between atoms: _3  and  _4
REMARK    3  A    between atoms: _3  and  _6
REMARK    4  A    between atoms: _6  and  _7
REMARK    5  A    between atoms: _7  and  _8
REMARK    6  A    between atoms: _8  and  _9
REMARK    7  A    between atoms: _18  and  _20
REMARK    8  A    between atoms: _20  and  _21
REMARK    9  A    between atoms: _20  and  _23
REMARK   10  A    between atoms: _23  and  _24
REMARK   11  A    between atoms: _27  and  _29
REMARK   12  A    between atoms: _29  and  _30
REMARK   13  A    between atoms: _29  and  _32
REMARK   14  A    between atoms: _32  and  _33
REMARK   15  A    between atoms: _36  and  _38
REMARK   16  A    between atoms: _38  and  _39
REMARK   17  A    between atoms: _38  and  _41
REMARK   18  A    between atoms: _41  and  _42
REMARK   19  A    between atoms: _45  and  _47
REMARK   20  A    between atoms: _47  and  _48
REMARK   21  A    between atoms: _47  and  _50
REMARK   22  A    between atoms: _50  and  _51
REMARK   23  A    between atoms: _54  and  _56
REMARK   24  A    between atoms: _56  and  _57
REMARK   25  A    between atoms: _59  and  _61
REMARK   26  A    between atoms: _61  and  _62
REMARK   27  A    between atoms: _65  and  _67
REMARK   28  A    between atoms: _67  and  _68
REMARK   29  A    between atoms: _67  and  _70
REMARK   30  A    between atoms: _70  and  _71
REMARK   31  A    between atoms: _74  and  _76
REMARK   32  A    between atoms: _76  and  _77
REMARK   33  A    between atoms: _76  and  _79
REMARK   34  A    between atoms: _79  and  _80
REMARK   35  A    between atoms: _83  and  _85
REMARK   36  A    between atoms: _85  and  _86
REMARK   37  A    between atoms: _85  and  _88
REMARK   38  A    between atoms: _88  and  _89
REMARK   39  A    between atoms: _92  and  _94
REMARK   40  A    between atoms: _94  and  _95
REMARK   41  A    between atoms: _94  and  _97
REMARK   42  A    between atoms: _100  and  _102
REMARK   43  A    between atoms: _102  and  _103
REMARK   44  A    between atoms: _102  and  _105
REMARK   45  A    between atoms: _105  and  _106
REMARK   46  A    between atoms: _106  and  _107
REMARK   47  A    between atoms: _107  and  _108
REMARK   48  A    between atoms: _108  and  _109
REMARK   49  A    between atoms: _113  and  _115
REMARK   50  A    between atoms: _115  and  _116
REMARK   51  A    between atoms: _115  and  _118
REMARK   52  A    between atoms: _118  and  _119
REMARK   53  A    between atoms: _119  and  _120
REMARK   54  A    between atoms: _122  and  _124
REMARK   55  A    between atoms: _124  and  _125
REMARK   56  A    between atoms: _124  and  _127
REMARK   57  A    between atoms: _127  and  _128
REMARK   58  A    between atoms: _131  and  _133
REMARK   59  A    between atoms: _133  and  _134
REMARK   60  A    between atoms: _133  and  _136
REMARK   61  A    between atoms: _139  and  _141
REMARK   62  A    between atoms: _141  and  _142
REMARK   63  A    between atoms: _144  and  _146
REMARK   64  A    between atoms: _146  and  _147
REMARK   65  A    between atoms: _146  and  _149
REMARK   66  A    between atoms: _149  and  _150
REMARK   67  A    between atoms: _153  and  _155
REMARK   68  A    between atoms: _155  and  _156
REMARK   69  A    between atoms: _158  and  _160
REMARK   70  A    between atoms: _160  and  _161
REMARK   71  A    between atoms: _163  and  _165
REMARK   72  A    between atoms: _165  and  _166
REMARK   73  A    between atoms: _165  and  _168
REMARK   74  A    between atoms: _171  and  _173
REMARK   75  A    between atoms: _173  and  _174
REMARK   76  A    between atoms: _173  and  _176
REMARK   77  A    between atoms: _179  and  _181
REMARK   78  A    between atoms: _181  and  _182
REMARK   79  A    between atoms: _181  and  _184
REMARK   80  A    between atoms: _184  and  _185
REMARK   81  A    between atoms: _188  and  _190
REMARK   82  A    between atoms: _190  and  _191
REMARK   83  A    between atoms: _190  and  _193
REMARK   84  A    between atoms: _193  and  _194
REMARK   85  A    between atoms: _198  and  _199
REMARK   86  A    between atoms: _204  and  _206
REMARK   87  A    between atoms: _206  and  _207
REMARK   88  A    between atoms: _210  and  _212
REMARK   89  A    between atoms: _212  and  _213
REMARK   90  A    between atoms: _212  and  _215
REMARK   91  A    between atoms: _215  and  _216
REMARK   92  A    between atoms: _221  and  _223
REMARK   93  A    between atoms: _223  and  _224
REMARK   94  A    between atoms: _223  and  _226
REMARK   95  A    between atoms: _226  and  _227
REMARK   96  A    between atoms: _230  and  _232
REMARK   97  A    between atoms: _232  and  _233
REMARK   98  A    between atoms: _232  and  _235
REMARK   99  A    between atoms: _235  and  _236
REMARK  100  A    between atoms: _239  and  _241
REMARK  101  A    between atoms: _241  and  _242
REMARK  102  A    between atoms: _244  and  _246
REMARK  103  A    between atoms: _246  and  _247
REMARK  104  A    between atoms: _246  and  _249
REMARK  105  A    between atoms: _249  and  _250
REMARK  106  A    between atoms: _250  and  _251
REMARK  107  A    between atoms: _251  and  _252
REMARK  108  A    between atoms: _261  and  _263
REMARK  109  A    between atoms: _263  and  _264
REMARK  110  A    between atoms: _263  and  _266
REMARK  111  A    between atoms: _266  and  _267
REMARK  112  A    between atoms: _272  and  _274
REMARK  113  A    between atoms: _274  and  _275
REMARK  114  A    between atoms: _274  and  _277
REMARK  115  A    between atoms: _277  and  _278
REMARK  116  A    between atoms: _278  and  _279
REMARK  117  A    between atoms: _279  and  _280
REMARK  118  A    between atoms: _289  and  _291
REMARK  119  A    between atoms: _291  and  _292
REMARK  120  A    between atoms: _291  and  _294
REMARK  121  A    between atoms: _294  and  _295
REMARK  122  A    between atoms: _298  and  _300
REMARK  123  A    between atoms: _300  and  _301
REMARK  124  A    between atoms: _300  and  _303
REMARK  125  A    between atoms: _303  and  _304
REMARK  126  A    between atoms: _307  and  _309
REMARK  127  A    between atoms: _309  and  _310
REMARK  128  A    between atoms: _309  and  _312
REMARK  129  A    between atoms: _312  and  _313
REMARK  130  A    between atoms: _316  and  _318
REMARK  131  A    between atoms: _318  and  _319
REMARK  132  A    between atoms: _318  and  _321
REMARK  133  A    between atoms: _321  and  _322
REMARK  134  A    between atoms: _325  and  _327
REMARK  135  A    between atoms: _327  and  _328
REMARK  136  A    between atoms: _330  and  _332
REMARK  137  A    between atoms: _332  and  _333
REMARK  138  A    between atoms: _336  and  _338
REMARK  139  A    between atoms: _338  and  _339
REMARK  140  A    between atoms: _338  and  _341
REMARK  141  A    between atoms: _341  and  _342
REMARK  142  A    between atoms: _345  and  _347
REMARK  143  A    between atoms: _347  and  _348
REMARK  144  A    between atoms: _347  and  _350
REMARK  145  A    between atoms: _350  and  _351
REMARK  146  A    between atoms: _354  and  _356
REMARK  147  A    between atoms: _356  and  _357
REMARK  148  A    between atoms: _356  and  _359
REMARK  149  A    between atoms: _359  and  _360
REMARK  150  A    between atoms: _363  and  _365
REMARK  151  A    between atoms: _365  and  _366
REMARK  152  A    between atoms: _365  and  _368
REMARK  153  A    between atoms: _371  and  _373
REMARK  154  A    between atoms: _373  and  _374
REMARK  155  A    between atoms: _373  and  _376
REMARK  156  A    between atoms: _376  and  _377
REMARK  157  A    between atoms: _380  and  _382
REMARK  158  A    between atoms: _382  and  _383
REMARK  159  A    between atoms: _382  and  _385
REMARK  160  A    between atoms: _385  and  _386
REMARK  161  A    between atoms: _386  and  _387
REMARK  162  A    between atoms: _387  and  _388
REMARK  163  A    between atoms: _388  and  _389
REMARK  164  A    between atoms: _393  and  _395
REMARK  165  A    between atoms: _395  and  _396
REMARK  166  A    between atoms: _395  and  _398
REMARK  167  A    between atoms: _398  and  _399
REMARK  168  A    between atoms: _399  and  _400
REMARK  169  A    between atoms: _402  and  _404
REMARK  170  A    between atoms: _404  and  _405
REMARK  171  A    between atoms: _404  and  _407
REMARK  172  A    between atoms: _407  and  _408
REMARK  173  A    between atoms: _411  and  _413
REMARK  174  A    between atoms: _413  and  _414
REMARK  175  A    between atoms: _413  and  _416
REMARK  176  A    between atoms: _419  and  _421
REMARK  177  A    between atoms: _421  and  _422
REMARK  178  A    between atoms: _424  and  _426
REMARK  179  A    between atoms: _426  and  _427
REMARK  180  A    between atoms: _426  and  _429
REMARK  181  A    between atoms: _429  and  _430
REMARK  182  A    between atoms: _433  and  _435
REMARK  183  A    between atoms: _435  and  _436
REMARK  184  A    between atoms: _438  and  _440
REMARK  185  A    between atoms: _440  and  _441
REMARK  186  A    between atoms: _443  and  _445
REMARK  187  A    between atoms: _445  and  _446
REMARK  188  A    between atoms: _445  and  _448
REMARK  189  A    between atoms: _451  and  _453
REMARK  190  A    between atoms: _453  and  _454
REMARK  191  A    between atoms: _453  and  _456
REMARK  192  A    between atoms: _459  and  _461
REMARK  193  A    between atoms: _461  and  _462
REMARK  194  A    between atoms: _461  and  _464
REMARK  195  A    between atoms: _464  and  _465
REMARK  196  A    between atoms: _469  and  _470
REMARK  197  A    between atoms: _475  and  _477
REMARK  198  A    between atoms: _477  and  _478
REMARK  199  A    between atoms: _477  and  _480
REMARK  200  A    between atoms: _480  and  _481
REMARK  201  A    between atoms: _485  and  _486
REMARK  202  A    between atoms: _491  and  _493
REMARK  203  A    between atoms: _493  and  _494
REMARK  204  A    between atoms: _497  and  _499
REMARK  205  A    between atoms: _499  and  _500
REMARK  206  A    between atoms: _499  and  _502
REMARK  207  A    between atoms: _502  and  _503
REMARK  208  A    between atoms: _508  and  _510
REMARK  209  A    between atoms: _510  and  _511
REMARK  210  A    between atoms: _510  and  _513
REMARK  211  A    between atoms: _513  and  _514
REMARK  212  A    between atoms: _517  and  _519
REMARK  213  A    between atoms: _519  and  _520
REMARK  214  A    between atoms: _519  and  _522
REMARK  215  A    between atoms: _522  and  _523
REMARK  216  A    between atoms: _526  and  _528
REMARK  217  A    between atoms: _528  and  _529
REMARK  218  A    between atoms: _531  and  _533
REMARK  219  A    between atoms: _533  and  _534
REMARK  220  A    between atoms: _533  and  _536
REMARK  221  A    between atoms: _536  and  _537
REMARK  222  A    between atoms: _537  and  _538
REMARK  223  A    between atoms: _538  and  _539
REMARK  224  A    between atoms: _548  and  _550
REMARK  225  A    between atoms: _550  and  _551
REMARK  226  A    between atoms: _550  and  _553
REMARK  227  A    between atoms: _553  and  _554
REMARK                            x       y       z     vdW  Elec       q    Type
REMARK                         _______ _______ _______ _____ _____    ______ ____
ROOT
ATOM      1  CA  VAL A   1      30.641  47.163 -16.627  0.00  0.00    +0.133 C 
ENDROOT
BRANCH   1   2
ATOM      2  CB  VAL A   1      29.182  47.398 -16.161  0.00  0.00    +0.023 C 
ATOM      3  CG2 VAL A   1      29.108  48.519 -15.131  0.00  0.00    +0.002 C 
ATOM      4  CG1 VAL A   1      28.609  46.123 -15.598  0.00  0.00    +0.002 C 
ENDBRANCH   1   2
BRANCH   1   5
ATOM      5  N   VAL A   1      31.482  46.680 -15.536  0.00  0.00    -0.239 NA
ATOM      6  H   VAL A   1      31.855  47.364 -14.847  0.00  0.00    +0.142 HD
ENDBRANCH   1   5
BRANCH   1   7
ATOM      7  C   VAL A   1      31.171  48.447 -17.256  0.00  0.00    +0.224 C 
ATOM      8  O   VAL A   1      32.054  49.112 -16.712  0.00  0.00    -0.287 OA
ENDBRANCH   1   7
TORSDOF 3
REMARK  Name = ../refined-set-2016/3ekt/3ekt_pocket.pdb
REMARK  227 active torsions:
REMARK  status: ('A' for Active; 'I' for Inactive)
REMARK    1  A    between atoms: _1  and  _3
REMARK    2  A    between atoms: _3  and  _4
REMARK    3  A    between atoms: _3  and  _6
REMARK    4  A    between atoms: _6  and  _7
REMARK    5  A    between atoms: _7  and  _8
REMARK    6  A    between atoms: _8  and  _9
REMARK    7  A    between atoms: _18  and  _20
REMARK    8  A    between atoms: _20  and  _21
REMARK    9  A    between atoms: _20  and  _23
REMARK   10  A    between atoms: _23  and  _24
REMARK   11  A    between atoms: _27  and  _29
REMARK   12  A    between atoms: _29  and  _30
REMARK   13  A    between atoms: _29  and  _32
REMARK   14  A    between atoms: _32  and  _33
REMARK   15  A    between atoms: _36  and  _38
REMARK   16  A    between atoms: _38  and  _39
REMARK   17  A    between atoms: _38  and  _41
REMARK   18  A    between atoms: _41  and  _42
REMARK   19  A    between atoms: _45  and  _47
REMARK   20  A    between atoms: _47  and  _48
REMARK   21  A    between atoms: _47  and  _50
REMARK   22  A    between atoms: _50  and  _51
REMARK   23  A    between atoms: _54  and  _56
REMARK   24  A    between atoms: _56  and  _57
REMARK   25  A    between atoms: _59  and  _61
REMARK   26  A    between atoms: _61  and  _62
REMARK   27  A    between atoms: _65  and  _67
REMARK   28  A    between atoms: _67  and  _68
REMARK   29  A    between atoms: _67  and  _70
REMARK   30  A    between atoms: _70  and  _71
REMARK   31  A    between atoms: _74  and  _76
REMARK   32  A    between atoms: _76  and  _77
REMARK   33  A    between atoms: _76  and  _79
REMARK   34  A    between atoms: _79  and  _80
REMARK   35  A    between atoms: _83  and  _85
REMARK   36  A    between atoms: _85  and  _86
REMARK   37  A    between atoms: _85  and  _88
REMARK   38  A    between atoms: _88  and  _89
REMARK   39  A    between atoms: _92  and  _94
REMARK   40  A    between atoms: _94  and  _95
REMARK   41  A    between atoms: _94  and  _97
REMARK   42  A    between atoms: _100  and  _102
REMARK   43  A    between atoms: _102  and  _103
REMARK   44  A    between atoms: _102  and  _105
REMARK   45  A    between atoms: _105  and  _106
REMARK   46  A    between atoms: _106  and  _107
REMARK   47  A    between atoms: _107  and  _108
REMARK   48  A    between atoms: _108  and  _109
REMARK   49  A    between atoms: _113  and  _115
REMARK   50  A    between atoms: _115  and  _116
REMARK   51  A    between atoms: _115  and  _118
REMARK   52  A    between atoms: _118  and  _119
REMARK   53  A    between atoms: _119  and  _120
REMARK   54  A    between atoms: _122  and  _124
REMARK   55  A    between atoms: _124  and  _125
REMARK   56  A    between atoms: _124  and  _127
REMARK   57  A    between atoms: _127  and  _128
REMARK   58  A    between atoms: _131  and  _133
REMARK   59  A    between atoms: _133  and  _134
REMARK   60  A    between atoms: _133  and  _136
REMARK   61  A    between atoms: _139  and  _141
REMARK   62  A    between atoms: _141  and  _142
REMARK   63  A    between atoms: _144  and  _146
REMARK   64  A    between atoms: _146  and  _147
REMARK   65  A    between atoms: _146  and  _149
REMARK   66  A    between atoms: _149  and  _150
REMARK   67  A    between atoms: _153  and  _155
REMARK   68  A    between atoms: _155  and  _156
REMARK   69  A    between atoms: _158  and  _160
REMARK   70  A    between atoms: _160  and  _161
REMARK   71  A    between atoms: _163  and  _165
REMARK   72  A    between atoms: _165  and  _166
REMARK   73  A    between atoms: _165  and  _168
REMARK   74  A    between atoms: _171  and  _173
REMARK   75  A    between atoms: _173  and  _174
REMARK   76  A    between atoms: _173  and  _176
REMARK   77  A    between atoms: _179  and  _181
REMARK   78  A    between atoms: _181  and  _182
REMARK   79  A    between atoms: _181  and  _184
REMARK   80  A    between atoms: _184  and  _185
REMARK   81  A    between atoms: _188  and  _190
REMARK   82  A    between atoms: _190  and  _191
REMARK   83  A    between atoms: _190  and  _193
REMARK   84  A    between atoms: _193  and  _194
REMARK   85  A    between atoms: _198  and  _199
REMARK   86  A    between atoms: _204  and  _206
REMARK   87  A    between atoms: _206  and  _207
REMARK   88  A    between atoms: _210  and  _212
REMARK   89  A    between atoms: _212  and  _213
REMARK   90  A    between atoms: _212  and  _215
REMARK   91  A    between atoms: _215  and  _216
REMARK   92  A    between atoms: _221  and  _223
REMARK   93  A    between atoms: _223  and  _224
REMARK   94  A    between atoms: _223  and  _226
REMARK   95  A    between atoms: _226  and  _227
REMARK   96  A    between atoms: _230  and  _232
REMARK   97  A    between atoms: _232  and  _233
REMARK   98  A    between atoms: _232  and  _235
REMARK   99  A    between atoms: _235  and  _236
REMARK  100  A    between atoms: _239  and  _241
REMARK  101  A    between atoms: _241  and  _242
REMARK  102  A    between atoms: _244  and  _246
REMARK  103  A    between atoms: _246  and  _247
REMARK  104  A    between atoms: _246  and  _249
REMARK  105  A    between atoms: _249  and  _250
REMARK  106  A    between atoms: _250  and  _251
REMARK  107  A    between atoms: _251  and  _252
REMARK  108  A    between atoms: _261  and  _263
REMARK  109  A    between atoms: _263  and  _264
REMARK  110  A    between atoms: _263  and  _266
REMARK  111  A    between atoms: _266  and  _267
REMARK  112  A    between atoms: _272  and  _274
REMARK  113  A    between atoms: _274  and  _275
REMARK  114  A    between atoms: _274  and  _277
REMARK  115  A    between atoms: _277  and  _278
REMARK  116  A    between atoms: _278  and  _279
REMARK  117  A    between atoms: _279  and  _280
REMARK  118  A    between atoms: _289  and  _291
REMARK  119  A    between atoms: _291  and  _292
REMARK  120  A    between atoms: _291  and  _294
REMARK  121  A    between atoms: _294  and  _295
REMARK  122  A    between atoms: _298  and  _300
REMARK  123  A    between atoms: _300  and  _301
REMARK  124  A    between atoms: _300  and  _303
REMARK  125  A    between atoms: _303  and  _304
REMARK  126  A    between atoms: _307  and  _309
REMARK  127  A    between atoms: _309  and  _310
REMARK  128  A    between atoms: _309  and  _312
REMARK  129  A    between atoms: _312  and  _313
REMARK  130  A    between atoms: _316  and  _318
REMARK  131  A    between atoms: _318  and  _319
REMARK  132  A    between atoms: _318  and  _321
REMARK  133  A    between atoms: _321  and  _322
REMARK  134  A    between atoms: _325  and  _327
REMARK  135  A    between atoms: _327  and  _328
REMARK  136  A    between atoms: _330  and  _332
REMARK  137  A    between atoms: _332  and  _333
REMARK  138  A    between atoms: _336  and  _338
REMARK  139  A    between atoms: _338  and  _339
REMARK  140  A    between atoms: _338  and  _341
REMARK  141  A    between atoms: _341  and  _342
REMARK  142  A    between atoms: _345  and  _347
REMARK  143  A    between atoms: _347  and  _348
REMARK  144  A    between atoms: _347  and  _350
REMARK  145  A    between atoms: _350  and  _351
REMARK  146  A    between atoms: _354  and  _356
REMARK  147  A    between atoms: _356  and  _357
REMARK  148  A    between atoms: _356  and  _359
REMARK  149  A    between atoms: _359  and  _360
REMARK  150  A    between atoms: _363  and  _365
REMARK  151  A    between atoms: _365  and  _366
REMARK  152  A    between atoms: _365  and  _368
REMARK  153  A    between atoms: _371  and  _373
REMARK  154  A    between atoms: _373  and  _374
REMARK  155  A    between atoms: _373  and  _376
REMARK  156  A    between atoms: _376  and  _377
REMARK  157  A    between atoms: _380  and  _382
REMARK  158  A    between atoms: _382  and  _383
REMARK  159  A    between atoms: _382  and  _385
REMARK  160  A    between atoms: _385  and  _386
REMARK  161  A    between atoms: _386  and  _387
REMARK  162  A    between atoms: _387  and  _388
REMARK  163  A    between atoms: _388  and  _389
REMARK  164  A    between atoms: _393  and  _395
REMARK  165  A    between atoms: _395  and  _396
REMARK  166  A    between atoms: _395  and  _398
REMARK  167  A    between atoms: _398  and  _399
REMARK  168  A    between atoms: _399  and  _400
REMARK  169  A    between atoms: _402  and  _404
REMARK  170  A    between atoms: _404  and  _405
REMARK  171  A    between atoms: _404  and  _407
REMARK  172  A    between atoms: _407  and  _408
REMARK  173  A    between atoms: _411  and  _413
REMARK  174  A    between atoms: _413  and  _414
REMARK  175  A    between atoms: _413  and  _416
REMARK  176  A    between atoms: _419  and  _421
REMARK  177  A    between atoms: _421  and  _422
REMARK  178  A    between atoms: _424  and  _426
REMARK  179  A    between atoms: _426  and  _427
REMARK  180  A    between atoms: _426  and  _429
REMARK  181  A    between atoms: _429  and  _430
REMARK  182  A    between atoms: _433  and  _435
REMARK  183  A    between atoms: _435  and  _436
REMARK  184  A    between atoms: _438  and  _440
REMARK  185  A    between atoms: _440  and  _441
REMARK  186  A    between atoms: _443  and  _445
REMARK  187  A    between atoms: _445  and  _446
REMARK  188  A    between atoms: _445  and  _448
REMARK  189  A    between atoms: _451  and  _453
REMARK  190  A    between atoms: _453  and  _454
REMARK  191  A    between atoms: _453  and  _456
REMARK  192  A    between atoms: _459  and  _461
REMARK  193  A    between atoms: _461  and  _462
REMARK  194  A    between atoms: _461  and  _464
REMARK  195  A    between atoms: _464  and  _465
REMARK  196  A    between atoms: _469  and  _470
REMARK  197  A    between atoms: _475  and  _477
REMARK  198  A    between atoms: _477  and  _478
REMARK  199  A    between atoms: _477  and  _480
REMARK  200  A    between atoms: _480  and  _481
REMARK  201  A    between atoms: _485  and  _486
REMARK  202  A    between atoms: _491  and  _493
REMARK  203  A    between atoms: _493  and  _494
REMARK  204  A    between atoms: _497  and  _499
REMARK  205  A    between atoms: _499  and  _500
REMARK  206  A    between atoms: _499  and  _502
REMARK  207  A    between atoms: _502  and  _503
REMARK  208  A    between atoms: _508  and  _510
REMARK  209  A    between atoms: _510  and  _511
REMARK  210  A    between atoms: _510  and  _513
REMARK  211  A    between atoms: _513  and  _514
REMARK  212  A    between atoms: _517  and  _519
REMARK  213  A    between atoms: _519  and  _520
REMARK  214  A    between atoms: _519  and  _522
REMARK  215  A    between atoms: _522  and  _523
REMARK  216  A    between atoms: _526  and  _528
REMARK  217  A    between atoms: _528  and  _529
REMARK  218  A    between atoms: _531  and  _533
REMARK  219  A    between atoms: _533  and  _534
REMARK  220  A    between atoms: _533  and  _536
REMARK  221  A    between atoms: _536  and  _537
REMARK  222  A    between atoms: _537  and  _538
REMARK  223  A    between atoms: _538  and  _539
REMARK  224  A    between atoms: _548  and  _550
REMARK  225  A    between atoms: _550  and  _551
REMARK  226  A    between atoms: _550  and  _553
REMARK  227  A    between atoms: _553  and  _554
REMARK                            x       y       z     vdW  Elec       q    Type
REMARK                         _______ _______ _______ _____ _____    ______ ____
ROOT
ATOM      1  CA  LEU A   1      25.592  50.332 -18.112  0.00  0.00    +0.133 C 
ENDROOT
BRANCH   1   2
ATOM      2  N   LEU A   1      24.458  51.190 -18.373  0.00  0.00    -0.239 NA
ATOM      3  H   LEU A   1      23.544  50.964 -17.931  0.00  0.00    +0.142 HD
ENDBRANCH   1   2
BRANCH   1   4
ATOM      4  C   LEU A   1      25.469  49.098 -19.013  0.00  0.00    +0.224 C 
ATOM      5  O   LEU A   1      24.361  48.601 -19.249  0.00  0.00    -0.287 OA
ENDBRANCH   1   4
BRANCH   1   6
ATOM      6  CB  LEU A   1      25.604  49.909 -16.640  0.00  0.00    +0.025 C 
BRANCH   6   7
ATOM      7  CG  LEU A   1      25.551  51.021 -15.593  0.00  0.00    +0.002 C 
ATOM      8  CD2 LEU A   1      25.599  50.404 -14.211  0.00  0.00    +0.000 C 
ATOM      9  CD1 LEU A   1      26.687  52.008 -15.752  0.00  0.00    +0.000 C 
ENDBRANCH   6   7
ENDBRANCH   1   6
TORSDOF 4
REMARK  Name = ../refined-set-2016/3ekt/3ekt_pocket.pdb
REMARK  227 active torsions:
REMARK  status: ('A' for Active; 'I' for Inactive)
REMARK    1  A    between atoms: _1  and  _3
REMARK    2  A    between atoms: _3  and  _4
REMARK    3  A    between atoms: _3  and  _6
REMARK    4  A    between atoms: _6  and  _7
REMARK    5  A    between atoms: _7  and  _8
REMARK    6  A    between atoms: _8  and  _9
REMARK    7  A    between atoms: _18  and  _20
REMARK    8  A    between atoms: _20  and  _21
REMARK    9  A    between atoms: _20  and  _23
REMARK   10  A    between atoms: _23  and  _24
REMARK   11  A    between atoms: _27  and  _29
REMARK   12  A    between atoms: _29  and  _30
REMARK   13  A    between atoms: _29  and  _32
REMARK   14  A    between atoms: _32  and  _33
REMARK   15  A    between atoms: _36  and  _38
REMARK   16  A    between atoms: _38  and  _39
REMARK   17  A    between atoms: _38  and  _41
REMARK   18  A    between atoms: _41  and  _42
REMARK   19  A    between atoms: _45  and  _47
REMARK   20  A    between atoms: _47  and  _48
REMARK   21  A    between atoms: _47  and  _50
REMARK   22  A    between atoms: _50  and  _51
REMARK   23  A    between atoms: _54  and  _56
REMARK   24  A    between atoms: _56  and  _57
REMARK   25  A    between atoms: _59  and  _61
REMARK   26  A    between atoms: _61  and  _62
REMARK   27  A    between atoms: _65  and  _67
REMARK   28  A    between atoms: _67  and  _68
REMARK   29  A    between atoms: _67  and  _70
REMARK   30  A    between atoms: _70  and  _71
REMARK   31  A    between atoms: _74  and  _76
REMARK   32  A    between atoms: _76  and  _77
REMARK   33  A    between atoms: _76  and  _79
REMARK   34  A    between atoms: _79  and  _80
REMARK   35  A    between atoms: _83  and  _85
REMARK   36  A    between atoms: _85  and  _86
REMARK   37  A    between atoms: _85  and  _88
REMARK   38  A    between atoms: _88  and  _89
REMARK   39  A    between atoms: _92  and  _94
REMARK   40  A    between atoms: _94  and  _95
REMARK   41  A    between atoms: _94  and  _97
REMARK   42  A    between atoms: _100  and  _102
REMARK   43  A    between atoms: _102  and  _103
REMARK   44  A    between atoms: _102  and  _105
REMARK   45  A    between atoms: _105  and  _106
REMARK   46  A    between atoms: _106  and  _107
REMARK   47  A    between atoms: _107  and  _108
REMARK   48  A    between atoms: _108  and  _109
REMARK   49  A    between atoms: _113  and  _115
REMARK   50  A    between atoms: _115  and  _116
REMARK   51  A    between atoms: _115  and  _118
REMARK   52  A    between atoms: _118  and  _119
REMARK   53  A    between atoms: _119  and  _120
REMARK   54  A    between atoms: _122  and  _124
REMARK   55  A    between atoms: _124  and  _125
REMARK   56  A    between atoms: _124  and  _127
REMARK   57  A    between atoms: _127  and  _128
REMARK   58  A    between atoms: _131  and  _133
REMARK   59  A    between atoms: _133  and  _134
REMARK   60  A    between atoms: _133  and  _136
REMARK   61  A    between atoms: _139  and  _141
REMARK   62  A    between atoms: _141  and  _142
REMARK   63  A    between atoms: _144  and  _146
REMARK   64  A    between atoms: _146  and  _147
REMARK   65  A    between atoms: _146  and  _149
REMARK   66  A    between atoms: _149  and  _150
REMARK   67  A    between atoms: _153  and  _155
REMARK   68  A    between atoms: _155  and  _156
REMARK   69  A    between atoms: _158  and  _160
REMARK   70  A    between atoms: _160  and  _161
REMARK   71  A    between atoms: _163  and  _165
REMARK   72  A    between atoms: _165  and  _166
REMARK   73  A    between atoms: _165  and  _168
REMARK   74  A    between atoms: _171  and  _173
REMARK   75  A    between atoms: _173  and  _174
REMARK   76  A    between atoms: _173  and  _176
REMARK   77  A    between atoms: _179  and  _181
REMARK   78  A    between atoms: _181  and  _182
REMARK   79  A    between atoms: _181  and  _184
REMARK   80  A    between atoms: _184  and  _185
REMARK   81  A    between atoms: _188  and  _190
REMARK   82  A    between atoms: _190  and  _191
REMARK   83  A    between atoms: _190  and  _193
REMARK   84  A    between atoms: _193  and  _194
REMARK   85  A    between atoms: _198  and  _199
REMARK   86  A    between atoms: _204  and  _206
REMARK   87  A    between atoms: _206  and  _207
REMARK   88  A    between atoms: _210  and  _212
REMARK   89  A    between atoms: _212  and  _213
REMARK   90  A    between atoms: _212  and  _215
REMARK   91  A    between atoms: _215  and  _216
REMARK   92  A    between atoms: _221  and  _223
REMARK   93  A    between atoms: _223  and  _224
REMARK   94  A    between atoms: _223  and  _226
REMARK   95  A    between atoms: _226  and  _227
REMARK   96  A    between atoms: _230  and  _232
REMARK   97  A    between atoms: _232  and  _233
REMARK   98  A    between atoms: _232  and  _235
REMARK   99  A    between atoms: _235  and  _236
REMARK  100  A    between atoms: _239  and  _241
REMARK  101  A    between atoms: _241  and  _242
REMARK  102  A    between atoms: _244  and  _246
REMARK  103  A    between atoms: _246  and  _247
REMARK  104  A    between atoms: _246  and  _249
REMARK  105  A    between atoms: _249  and  _250
REMARK  106  A    between atoms: _250  and  _251
REMARK  107  A    between atoms: _251  and  _252
REMARK  108  A    between atoms: _261  and  _263
REMARK  109  A    between atoms: _263  and  _264
REMARK  110  A    between atoms: _263  and  _266
REMARK  111  A    between atoms: _266  and  _267
REMARK  112  A    between atoms: _272  and  _274
REMARK  113  A    between atoms: _274  and  _275
REMARK  114  A    between atoms: _274  and  _277
REMARK  115  A    between atoms: _277  and  _278
REMARK  116  A    between atoms: _278  and  _279
REMARK  117  A    between atoms: _279  and  _280
REMARK  118  A    between atoms: _289  and  _291
REMARK  119  A    between atoms: _291  and  _292
REMARK  120  A    between atoms: _291  and  _294
REMARK  121  A    between atoms: _294  and  _295
REMARK  122  A    between atoms: _298  and  _300
REMARK  123  A    between atoms: _300  and  _301
REMARK  124  A    between atoms: _300  and  _303
REMARK  125  A    between atoms: _303  and  _304
REMARK  126  A    between atoms: _307  and  _309
REMARK  127  A    between atoms: _309  and  _310
REMARK  128  A    between atoms: _309  and  _312
REMARK  129  A    between atoms: _312  and  _313
REMARK  130  A    between atoms: _316  and  _318
REMARK  131  A    between atoms: _318  and  _319
REMARK  132  A    between atoms: _318  and  _321
REMARK  133  A    between atoms: _321  and  _322
REMARK  134  A    between atoms: _325  and  _327
REMARK  135  A    between atoms: _327  and  _328
REMARK  136  A    between atoms: _330  and  _332
REMARK  137  A    between atoms: _332  and  _333
REMARK  138  A    between atoms: _336  and  _338
REMARK  139  A    between atoms: _338  and  _339
REMARK  140  A    between atoms: _338  and  _341
REMARK  141  A    between atoms: _341  and  _342
REMARK  142  A    between atoms: _345  and  _347
REMARK  143  A    between atoms: _347  and  _348
REMARK  144  A    between atoms: _347  and  _350
REMARK  145  A    between atoms: _350  and  _351
REMARK  146  A    between atoms: _354  and  _356
REMARK  147  A    between atoms: _356  and  _357
REMARK  148  A    between atoms: _356  and  _359
REMARK  149  A    between atoms: _359  and  _360
REMARK  150  A    between atoms: _363  and  _365
REMARK  151  A    between atoms: _365  and  _366
REMARK  152  A    between atoms: _365  and  _368
REMARK  153  A    between atoms: _371  and  _373
REMARK  154  A    between atoms: _373  and  _374
REMARK  155  A    between atoms: _373  and  _376
REMARK  156  A    between atoms: _376  and  _377
REMARK  157  A    between atoms: _380  and  _382
REMARK  158  A    between atoms: _382  and  _383
REMARK  159  A    between atoms: _382  and  _385
REMARK  160  A    between atoms: _385  and  _386
REMARK  161  A    between atoms: _386  and  _387
REMARK  162  A    between atoms: _387  and  _388
REMARK  163  A    between atoms: _388  and  _389
REMARK  164  A    between atoms: _393  and  _395
REMARK  165  A    between atoms: _395  and  _396
REMARK  166  A    between atoms: _395  and  _398
REMARK  167  A    between atoms: _398  and  _399
REMARK  168  A    between atoms: _399  and  _400
REMARK  169  A    between atoms: _402  and  _404
REMARK  170  A    between atoms: _404  and  _405
REMARK  171  A    between atoms: _404  and  _407
REMARK  172  A    between atoms: _407  and  _408
REMARK  173  A    between atoms: _411  and  _413
REMARK  174  A    between atoms: _413  and  _414
REMARK  175  A    between atoms: _413  and  _416
REMARK  176  A    between atoms: _419  and  _421
REMARK  177  A    between atoms: _421  and  _422
REMARK  178  A    between atoms: _424  and  _426
REMARK  179  A    between atoms: _426  and  _427
REMARK  180  A    between atoms: _426  and  _429
REMARK  181  A    between atoms: _429  and  _430
REMARK  182  A    between atoms: _433  and  _435
REMARK  183  A    between atoms: _435  and  _436
REMARK  184  A    between atoms: _438  and  _440
REMARK  185  A    between atoms: _440  and  _441
REMARK  186  A    between atoms: _443  and  _445
REMARK  187  A    between atoms: _445  and  _446
REMARK  188  A    between atoms: _445  and  _448
REMARK  189  A    between atoms: _451  and  _453
REMARK  190  A    between atoms: _453  and  _454
REMARK  191  A    between atoms: _453  and  _456
REMARK  192  A    between atoms: _459  and  _461
REMARK  193  A    between atoms: _461  and  _462
REMARK  194  A    between atoms: _461  and  _464
REMARK  195  A    between atoms: _464  and  _465
REMARK  196  A    between atoms: _469  and  _470
REMARK  197  A    between atoms: _475  and  _477
REMARK  198  A    between atoms: _477  and  _478
REMARK  199  A    between atoms: _477  and  _480
REMARK  200  A    between atoms: _480  and  _481
REMARK  201  A    between atoms: _485  and  _486
REMARK  202  A    between atoms: _491  and  _493
REMARK  203  A    between atoms: _493  and  _494
REMARK  204  A    between atoms: _497  and  _499
REMARK  205  A    between atoms: _499  and  _500
REMARK  206  A    between atoms: _499  and  _502
REMARK  207  A    between atoms: _502  and  _503
REMARK  208  A    between atoms: _508  and  _510
REMARK  209  A    between atoms: _510  and  _511
REMARK  210  A    between atoms: _510  and  _513
REMARK  211  A    between atoms: _513  and  _514
REMARK  212  A    between atoms: _517  and  _519
REMARK  213  A    between atoms: _519  and  _520
REMARK  214  A    between atoms: _519  and  _522
REMARK  215  A    between atoms: _522  and  _523
REMARK  216  A    between atoms: _526  and  _528
REMARK  217  A    between atoms: _528  and  _529
REMARK  218  A    between atoms: _531  and  _533
REMARK  219  A    between atoms: _533  and  _534
REMARK  220  A    between atoms: _533  and  _536
REMARK  221  A    between atoms: _536  and  _537
REMARK  222  A    between atoms: _537  and  _538
REMARK  223  A    between atoms: _538  and  _539
REMARK  224  A    between atoms: _548  and  _550
REMARK  225  A    between atoms: _550  and  _551
REMARK  226  A    between atoms: _550  and  _553
REMARK  227  A    between atoms: _553  and  _554
REMARK                            x       y       z     vdW  Elec       q    Type
REMARK                         _______ _______ _______ _____ _____    ______ ____
ROOT
ATOM      1  CA  ILE A   6      17.238  45.657 -16.513  0.00  0.00    +0.149 C 
ENDROOT
BRANCH   1   2
ATOM      2  C   ILE A   6      17.207  47.186 -16.567  0.00  0.00    +0.241 C 
ATOM      3  N   ILE A   7      16.014  47.738 -16.386  0.00  0.00    -0.297 N 
ATOM      4  H   ILE A   7      15.185  47.118 -16.292  0.00  0.00    +0.150 HD
ATOM      5  O   ILE A   6      18.229  47.839 -16.781  0.00  0.00    -0.273 OA
BRANCH   3   6
ATOM      6  CA  ILE A   7      15.824  49.165 -16.315  0.00  0.00    +0.149 C 
BRANCH   6   7
ATOM      7  C   ILE A   7      15.755  49.489 -14.839  0.00  0.00    +0.241 C 
ATOM      8  O   ILE A   7      14.861  49.022 -14.142  0.00  0.00    -0.273 OA
ATOM      9  N   GLY A   8      16.757  50.213 -14.360  0.00  0.00    -0.295 N 
ATOM     10  H   GLY A   8      17.476  50.573 -15.020  0.00  0.00    +0.150 HD
BRANCH   9  11
ATOM     11  CA  GLY A   8      16.887  50.522 -12.942  0.00  0.00    +0.176 C 
BRANCH  11  12
ATOM     12  C   GLY A   8      16.298  51.877 -12.638  0.00  0.00    +0.243 C 
ATOM     13  N   ARG A   9      16.414  52.296 -11.387  0.00  0.00    -0.297 N 
ATOM     14  H   ARG A   9      17.016  51.760 -10.729  0.00  0.00    +0.150 HD
ATOM     15  O   GLY A   8      15.759  52.531 -13.515  0.00  0.00    -0.273 OA
BRANCH  13  16
ATOM     16  CA  ARG A   9      15.730  53.475 -10.908  0.00  0.00    +0.149 C 
BRANCH  16  17
ATOM     17  C   ARG A   9      16.095  54.737 -11.692  0.00  0.00    +0.241 C 
ATOM     18  O   ARG A   9      15.287  55.642 -11.822  0.00  0.00    -0.273 OA
ATOM     19  N   ASN A  10      17.314  54.799 -12.211  0.00  0.00    -0.298 N 
ATOM     20  H   ASN A  10      17.948  53.978 -12.136  0.00  0.00    +0.150 HD
BRANCH  19  21
ATOM     21  CA  ASN A  10      17.774  56.011 -12.888  0.00  0.00    +0.146 C 
BRANCH  21  22
ATOM     22  C   ASN A  10      16.919  56.313 -14.118  0.00  0.00    +0.227 C 
ATOM     23  O   ASN A  10      16.778  57.463 -14.516  0.00  0.00    -0.286 OA
ENDBRANCH  21  22
BRANCH  21  24
ATOM     24  CB  ASN A  10      19.245  55.879 -13.293  0.00  0.00    +0.112 C 
BRANCH  24  25
ATOM     25  CG  ASN A  10      19.440  54.962 -14.470  0.00  0.00    +0.222 C 
ATOM     26  OD1 ASN A  10      19.106  53.788 -14.412  0.00  0.00    -0.275 OA
ATOM     27  ND2 ASN A  10      20.024  55.479 -15.529  0.00  0.00    -0.329 N 
ATOM     28 HD21 ASN A  10      20.292  56.484 -15.536  0.00  0.00    +0.145 HD
ATOM     29 HD22 ASN A  10      20.218  54.883 -16.359  0.00  0.00    +0.145 HD
ENDBRANCH  24  25
ENDBRANCH  21  24
ENDBRANCH  19  21
ENDBRANCH  16  17
BRANCH  16  30
ATOM     30  CB  ARG A   9      16.014  53.672  -9.417  0.00  0.00    +0.033 C 
BRANCH  30  31
ATOM     31  CG  ARG A   9      15.336  52.631  -8.537  0.00  0.00    +0.045 C 
BRANCH  31  32
ATOM     32  CD  ARG A   9      15.451  52.961  -7.056  0.00  0.00    +0.174 C 
BRANCH  32  33
ATOM     33  NE  ARG A   9      16.845  52.947  -6.607  0.00  0.00    -0.265 N 
ATOM     34  CZ  ARG A   9      17.572  54.044  -6.416  0.00  0.00    +0.342 C 
ATOM     35  NH2 ARG A   9      18.835  53.952  -6.040  0.00  0.00    -0.292 N 
ATOM     36 HH21 ARG A   9      19.267  53.018  -5.892  0.00  0.00    +0.255 HD
ATOM     37 HH22 ARG A   9      19.398  54.814  -5.892  0.00  0.00    +0.255 HD
ATOM     38  NH1 ARG A   9      17.028  55.236  -6.605  0.00  0.00    -0.292 N 
ATOM     39 HH11 ARG A   9      17.594  56.096  -6.456  0.00  0.00    +0.255 HD
ATOM     40 HH12 ARG A   9      16.034  55.313  -6.902  0.00  0.00    +0.255 HD
ATOM     41  HE  ARG A   9      17.292  52.026  -6.427  0.00  0.00    +0.259 HD
ENDBRANCH  32  33
ENDBRANCH  31  32
ENDBRANCH  30  31
ENDBRANCH  16  30
ENDBRANCH  13  16
ENDBRANCH  11  12
ENDBRANCH   9  11
ENDBRANCH   6   7
BRANCH   6  42
ATOM     42  CB  ILE A   7      14.513  49.594 -16.998  0.00  0.00    +0.027 C 
ATOM     43  CG2 ILE A   7      14.406  51.122 -17.056  0.00  0.00    +0.002 C 
BRANCH  42  44
ATOM     44  CG1 ILE A   7      14.411  48.964 -18.390  0.00  0.00    +0.002 C 
ATOM     45  CD1 ILE A   7      15.498  49.379 -19.328  0.00  0.00    +0.000 C 
ENDBRANCH  42  44
ENDBRANCH   6  42
ENDBRANCH   3   6
ENDBRANCH   1   2
BRANCH   1  47
ATOM     46  C   ASN A   5      17.498  44.076 -18.332  0.00  0.00    +0.241 C 
ATOM     47  N   ILE A   6      17.989  45.086 -17.616  0.00  0.00    -0.297 N 
ATOM     48  H   ILE A   6      18.926  45.472 -17.851  0.00  0.00    +0.150 HD
ATOM     49  O   ASN A   5      16.387  43.591 -18.128  0.00  0.00    -0.273 OA
BRANCH  46  50
ATOM     50  CA  ASN A   5      18.371  43.537 -19.456  0.00  0.00    +0.158 C 
BRANCH  50  53
ATOM     51  C   ALA A   4      19.208  41.584 -18.275  0.00  0.00    +0.241 C 
ATOM     52  O   ALA A   4      20.004  42.253 -17.618  0.00  0.00    -0.273 OA
ATOM     53  N   ASN A   5      18.492  42.093 -19.276  0.00  0.00    -0.297 N 
ATOM     54  H   ASN A   5      18.012  41.452 -19.940  0.00  0.00    +0.150 HD
BRANCH  51  55
ATOM     55  CA  ALA A   4      19.025  40.091 -17.981  0.00  0.00    +0.149 C 
ATOM     56  CB  ALA A   4      18.036  39.886 -16.823  0.00  0.00    +0.031 C 
BRANCH  55  58
ATOM     57  C   PRO A   3      20.526  38.176 -17.796  0.00  0.00    +0.241 C 
ATOM     58  N   ALA A   4      20.311  39.479 -17.658  0.00  0.00    -0.297 N 
ATOM     59  H   ALA A   4      21.083  40.083 -17.309  0.00  0.00    +0.150 HD
ATOM     60  O   PRO A   3      19.718  37.421 -18.322  0.00  0.00    -0.273 OA
BRANCH  57  66
ATOM     61  C   THR A   2      23.353  39.532 -17.564  0.00  0.00    +0.246 C 
ATOM     62  N   PRO A   3      22.708  38.707 -16.733  0.00  0.00    -0.272 N 
ATOM     63  CD  PRO A   3      22.696  38.719 -15.264  0.00  0.00    +0.094 C 
ATOM     64  CG  PRO A   3      22.237  37.357 -14.910  0.00  0.00    +0.024 C 
ATOM     65  CB  PRO A   3      21.649  36.703 -16.095  0.00  0.00    +0.031 C 
ATOM     66  CA  PRO A   3      21.865  37.649 -17.284  0.00  0.00    +0.152 C 
ATOM     67  O   THR A   2      23.287  39.416 -18.789  0.00  0.00    -0.273 OA
BRANCH  61  68
ATOM     68  CA  THR A   2      24.187  40.645 -16.935  0.00  0.00    +0.176 C 
BRANCH  68  71
ATOM     69  C   PRO A   1      26.506  40.155 -17.512  0.00  0.00    +0.239 C 
ATOM     70  O   PRO A   1      26.612  39.297 -16.638  0.00  0.00    -0.274 OA
ATOM     71  N   THR A   2      25.398  40.850 -17.720  0.00  0.00    -0.295 N 
ATOM     72  H   THR A   2      25.392  41.569 -18.471  0.00  0.00    +0.150 HD
BRANCH  69  77
ATOM     73  N   PRO A   1      28.073  41.833 -18.499  0.00  0.00    -0.210 NA
ATOM     74  CD  PRO A   1      29.367  42.039 -17.824  0.00  0.00    +0.089 C 
ATOM     75  CG  PRO A   1      29.681  40.689 -17.237  0.00  0.00    +0.021 C 
ATOM     76  CB  PRO A   1      28.927  39.705 -18.011  0.00  0.00    +0.028 C 
ATOM     77  CA  PRO A   1      27.657  40.436 -18.463  0.00  0.00    +0.149 C 
ENDBRANCH  69  77
ENDBRANCH  68  71
BRANCH  68  78
ATOM     78  CB  THR A   2      23.349  41.935 -16.870  0.00  0.00    +0.137 C 
ATOM     79  CG2 THR A   2      23.061  42.458 -18.256  0.00  0.00    +0.034 C 
BRANCH  78  80
ATOM     80  OG1 THR A   2      22.104  41.675 -16.209  0.00  0.00    -0.382 OA
ATOM     81  HG1 THR A   2      21.571  42.509 -16.171  0.00  0.00    +0.210 HD
ENDBRANCH  78  80
ENDBRANCH  68  78
ENDBRANCH  61  68
ENDBRANCH  57  66
ENDBRANCH  55  58
ENDBRANCH  51  55
ENDBRANCH  50  53
BRANCH  50  82
ATOM     82  CB  ASN A   5      17.722  43.884 -20.802  0.00  0.00    +0.114 C 
BRANCH  82  83
ATOM     83  CG  ASN A   5      18.600  43.552 -21.994  0.00  0.00    +0.222 C 
ATOM     84  OD1 ASN A   5      19.833  43.582 -21.912  0.00  0.00    -0.275 OA
ATOM     85  ND2 ASN A   5      17.961  43.250 -23.127  0.00  0.00    -0.329 N 
ATOM     86 HD21 ASN A   5      16.921  43.237 -23.150  0.00  0.00    +0.145 HD
ATOM     87 HD22 ASN A   5      18.503  43.028 -23.986  0.00  0.00    +0.145 HD
ENDBRANCH  82  83
ENDBRANCH  50  82
ENDBRANCH  46  50
ENDBRANCH   1  47
BRANCH   1  88
ATOM     88  CB  ILE A   6      17.781  45.184 -15.147  0.00  0.00    +0.027 C 
ATOM     89  CG2 ILE A   6      17.489  43.692 -14.942  0.00  0.00    +0.002 C 
BRANCH  88  90
ATOM     90  CG1 ILE A   6      19.280  45.432 -15.052  0.00  0.00    +0.002 C 
ATOM     91  CD1 ILE A   6      19.848  45.064 -13.713  0.00  0.00    +0.000 C 
ENDBRANCH  88  90
ENDBRANCH   1  88
TORSDOF 32
REMARK  Name = ../refined-set-2016/3ekt/3ekt_pocket.pdb
REMARK  227 active torsions:
REMARK  status: ('A' for Active; 'I' for Inactive)
REMARK    1  A    between atoms: _1  and  _3
REMARK    2  A    between atoms: _3  and  _4
REMARK    3  A    between atoms: _3  and  _6
REMARK    4  A    between atoms: _6  and  _7
REMARK    5  A    between atoms: _7  and  _8
REMARK    6  A    between atoms: _8  and  _9
REMARK    7  A    between atoms: _18  and  _20
REMARK    8  A    between atoms: _20  and  _21
REMARK    9  A    between atoms: _20  and  _23
REMARK   10  A    between atoms: _23  and  _24
REMARK   11  A    between atoms: _27  and  _29
REMARK   12  A    between atoms: _29  and  _30
REMARK   13  A    between atoms: _29  and  _32
REMARK   14  A    between atoms: _32  and  _33
REMARK   15  A    between atoms: _36  and  _38
REMARK   16  A    between atoms: _38  and  _39
REMARK   17  A    between atoms: _38  and  _41
REMARK   18  A    between atoms: _41  and  _42
REMARK   19  A    between atoms: _45  and  _47
REMARK   20  A    between atoms: _47  and  _48
REMARK   21  A    between atoms: _47  and  _50
REMARK   22  A    between atoms: _50  and  _51
REMARK   23  A    between atoms: _54  and  _56
REMARK   24  A    between atoms: _56  and  _57
REMARK   25  A    between atoms: _59  and  _61
REMARK   26  A    between atoms: _61  and  _62
REMARK   27  A    between atoms: _65  and  _67
REMARK   28  A    between atoms: _67  and  _68
REMARK   29  A    between atoms: _67  and  _70
REMARK   30  A    between atoms: _70  and  _71
REMARK   31  A    between atoms: _74  and  _76
REMARK   32  A    between atoms: _76  and  _77
REMARK   33  A    between atoms: _76  and  _79
REMARK   34  A    between atoms: _79  and  _80
REMARK   35  A    between atoms: _83  and  _85
REMARK   36  A    between atoms: _85  and  _86
REMARK   37  A    between atoms: _85  and  _88
REMARK   38  A    between atoms: _88  and  _89
REMARK   39  A    between atoms: _92  and  _94
REMARK   40  A    between atoms: _94  and  _95
REMARK   41  A    between atoms: _94  and  _97
REMARK   42  A    between atoms: _100  and  _102
REMARK   43  A    between atoms: _102  and  _103
REMARK   44  A    between atoms: _102  and  _105
REMARK   45  A    between atoms: _105  and  _106
REMARK   46  A    between atoms: _106  and  _107
REMARK   47  A    between atoms: _107  and  _108
REMARK   48  A    between atoms: _108  and  _109
REMARK   49  A    between atoms: _113  and  _115
REMARK   50  A    between atoms: _115  and  _116
REMARK   51  A    between atoms: _115  and  _118
REMARK   52  A    between atoms: _118  and  _119
REMARK   53  A    between atoms: _119  and  _120
REMARK   54  A    between atoms: _122  and  _124
REMARK   55  A    between atoms: _124  and  _125
REMARK   56  A    between atoms: _124  and  _127
REMARK   57  A    between atoms: _127  and  _128
REMARK   58  A    between atoms: _131  and  _133
REMARK   59  A    between atoms: _133  and  _134
REMARK   60  A    between atoms: _133  and  _136
REMARK   61  A    between atoms: _139  and  _141
REMARK   62  A    between atoms: _141  and  _142
REMARK   63  A    between atoms: _144  and  _146
REMARK   64  A    between atoms: _146  and  _147
REMARK   65  A    between atoms: _146  and  _149
REMARK   66  A    between atoms: _149  and  _150
REMARK   67  A    between atoms: _153  and  _155
REMARK   68  A    between atoms: _155  and  _156
REMARK   69  A    between atoms: _158  and  _160
REMARK   70  A    between atoms: _160  and  _161
REMARK   71  A    between atoms: _163  and  _165
REMARK   72  A    between atoms: _165  and  _166
REMARK   73  A    between atoms: _165  and  _168
REMARK   74  A    between atoms: _171  and  _173
REMARK   75  A    between atoms: _173  and  _174
REMARK   76  A    between atoms: _173  and  _176
REMARK   77  A    between atoms: _179  and  _181
REMARK   78  A    between atoms: _181  and  _182
REMARK   79  A    between atoms: _181  and  _184
REMARK   80  A    between atoms: _184  and  _185
REMARK   81  A    between atoms: _188  and  _190
REMARK   82  A    between atoms: _190  and  _191
REMARK   83  A    between atoms: _190  and  _193
REMARK   84  A    between atoms: _193  and  _194
REMARK   85  A    between atoms: _198  and  _199
REMARK   86  A    between atoms: _204  and  _206
REMARK   87  A    between atoms: _206  and  _207
REMARK   88  A    between atoms: _210  and  _212
REMARK   89  A    between atoms: _212  and  _213
REMARK   90  A    between atoms: _212  and  _215
REMARK   91  A    between atoms: _215  and  _216
REMARK   92  A    between atoms: _221  and  _223
REMARK   93  A    between atoms: _223  and  _224
REMARK   94  A    between atoms: _223  and  _226
REMARK   95  A    between atoms: _226  and  _227
REMARK   96  A    between atoms: _230  and  _232
REMARK   97  A    between atoms: _232  and  _233
REMARK   98  A    between atoms: _232  and  _235
REMARK   99  A    between atoms: _235  and  _236
REMARK  100  A    between atoms: _239  and  _241
REMARK  101  A    between atoms: _241  and  _242
REMARK  102  A    between atoms: _244  and  _246
REMARK  103  A    between atoms: _246  and  _247
REMARK  104  A    between atoms: _246  and  _249
REMARK  105  A    between atoms: _249  and  _250
REMARK  106  A    between atoms: _250  and  _251
REMARK  107  A    between atoms: _251  and  _252
REMARK  108  A    between atoms: _261  and  _263
REMARK  109  A    between atoms: _263  and  _264
REMARK  110  A    between atoms: _263  and  _266
REMARK  111  A    between atoms: _266  and  _267
REMARK  112  A    between atoms: _272  and  _274
REMARK  113  A    between atoms: _274  and  _275
REMARK  114  A    between atoms: _274  and  _277
REMARK  115  A    between atoms: _277  and  _278
REMARK  116  A    between atoms: _278  and  _279
REMARK  117  A    between atoms: _279  and  _280
REMARK  118  A    between atoms: _289  and  _291
REMARK  119  A    between atoms: _291  and  _292
REMARK  120  A    between atoms: _291  and  _294
REMARK  121  A    between atoms: _294  and  _295
REMARK  122  A    between atoms: _298  and  _300
REMARK  123  A    between atoms: _300  and  _301
REMARK  124  A    between atoms: _300  and  _303
REMARK  125  A    between atoms: _303  and  _304
REMARK  126  A    between atoms: _307  and  _309
REMARK  127  A    between atoms: _309  and  _310
REMARK  128  A    between atoms: _309  and  _312
REMARK  129  A    between atoms: _312  and  _313
REMARK  130  A    between atoms: _316  and  _318
REMARK  131  A    between atoms: _318  and  _319
REMARK  132  A    between atoms: _318  and  _321
REMARK  133  A    between atoms: _321  and  _322
REMARK  134  A    between atoms: _325  and  _327
REMARK  135  A    between atoms: _327  and  _328
REMARK  136  A    between atoms: _330  and  _332
REMARK  137  A    between atoms: _332  and  _333
REMARK  138  A    between atoms: _336  and  _338
REMARK  139  A    between atoms: _338  and  _339
REMARK  140  A    between atoms: _338  and  _341
REMARK  141  A    between atoms: _341  and  _342
REMARK  142  A    between atoms: _345  and  _347
REMARK  143  A    between atoms: _347  and  _348
REMARK  144  A    between atoms: _347  and  _350
REMARK  145  A    between atoms: _350  and  _351
REMARK  146  A    between atoms: _354  and  _356
REMARK  147  A    between atoms: _356  and  _357
REMARK  148  A    between atoms: _356  and  _359
REMARK  149  A    between atoms: _359  and  _360
REMARK  150  A    between atoms: _363  and  _365
REMARK  151  A    between atoms: _365  and  _366
REMARK  152  A    between atoms: _365  and  _368
REMARK  153  A    between atoms: _371  and  _373
REMARK  154  A    between atoms: _373  and  _374
REMARK  155  A    between atoms: _373  and  _376
REMARK  156  A    between atoms: _376  and  _377
REMARK  157  A    between atoms: _380  and  _382
REMARK  158  A    between atoms: _382  and  _383
REMARK  159  A    between atoms: _382  and  _385
REMARK  160  A    between atoms: _385  and  _386
REMARK  161  A    between atoms: _386  and  _387
REMARK  162  A    between atoms: _387  and  _388
REMARK  163  A    between atoms: _388  and  _389
REMARK  164  A    between atoms: _393  and  _395
REMARK  165  A    between atoms: _395  and  _396
REMARK  166  A    between atoms: _395  and  _398
REMARK  167  A    between atoms: _398  and  _399
REMARK  168  A    between atoms: _399  and  _400
REMARK  169  A    between atoms: _402  and  _404
REMARK  170  A    between atoms: _404  and  _405
REMARK  171  A    between atoms: _404  and  _407
REMARK  172  A    between atoms: _407  and  _408
REMARK  173  A    between atoms: _411  and  _413
REMARK  174  A    between atoms: _413  and  _414
REMARK  175  A    between atoms: _413  and  _416
REMARK  176  A    between atoms: _419  and  _421
REMARK  177  A    between atoms: _421  and  _422
REMARK  178  A    between atoms: _424  and  _426
REMARK  179  A    between atoms: _426  and  _427
REMARK  180  A    between atoms: _426  and  _429
REMARK  181  A    between atoms: _429  and  _430
REMARK  182  A    between atoms: _433  and  _435
REMARK  183  A    between atoms: _435  and  _436
REMARK  184  A    between atoms: _438  and  _440
REMARK  185  A    between atoms: _440  and  _441
REMARK  186  A    between atoms: _443  and  _445
REMARK  187  A    between atoms: _445  and  _446
REMARK  188  A    between atoms: _445  and  _448
REMARK  189  A    between atoms: _451  and  _453
REMARK  190  A    between atoms: _453  and  _454
REMARK  191  A    between atoms: _453  and  _456
REMARK  192  A    between atoms: _459  and  _461
REMARK  193  A    between atoms: _461  and  _462
REMARK  194  A    between atoms: _461  and  _464
REMARK  195  A    between atoms: _464  and  _465
REMARK  196  A    between atoms: _469  and  _470
REMARK  197  A    between atoms: _475  and  _477
REMARK  198  A    between atoms: _477  and  _478
REMARK  199  A    between atoms: _477  and  _480
REMARK  200  A    between atoms: _480  and  _481
REMARK  201  A    between atoms: _485  and  _486
REMARK  202  A    between atoms: _491  and  _493
REMARK  203  A    between atoms: _493  and  _494
REMARK  204  A    between atoms: _497  and  _499
REMARK  205  A    between atoms: _499  and  _500
REMARK  206  A    between atoms: _499  and  _502
REMARK  207  A    between atoms: _502  and  _503
REMARK  208  A    between atoms: _508  and  _510
REMARK  209  A    between atoms: _510  and  _511
REMARK  210  A    between atoms: _510  and  _513
REMARK  211  A    between atoms: _513  and  _514
REMARK  212  A    between atoms: _517  and  _519
REMARK  213  A    between atoms: _519  and  _520
REMARK  214  A    between atoms: _519  and  _522
REMARK  215  A    between atoms: _522  and  _523
REMARK  216  A    between atoms: _526  and  _528
REMARK  217  A    between atoms: _528  and  _529
REMARK  218  A    between atoms: _531  and  _533
REMARK  219  A    between atoms: _533  and  _534
REMARK  220  A    between atoms: _533  and  _536
REMARK  221  A    between atoms: _536  and  _537
REMARK  222  A    between atoms: _537  and  _538
REMARK  223  A    between atoms: _538  and  _539
REMARK  224  A    between atoms: _548  and  _550
REMARK  225  A    between atoms: _550  and  _551
REMARK  226  A    between atoms: _550  and  _553
REMARK  227  A    between atoms: _553  and  _554
REMARK                            x       y       z     vdW  Elec       q    Type
REMARK                         _______ _______ _______ _____ _____    ______ ____
ROOT
ATOM      1  O   HOH     1      10.899  39.985 -11.916  0.00  0.00    +0.000 OA
ENDROOT
TORSDOF 0
REMARK  Name = ../refined-set-2016/3ekt/3ekt_pocket.pdb
REMARK  227 active torsions:
REMARK  status: ('A' for Active; 'I' for Inactive)
REMARK    1  A    between atoms: _1  and  _3
REMARK    2  A    between atoms: _3  and  _4
REMARK    3  A    between atoms: _3  and  _6
REMARK    4  A    between atoms: _6  and  _7
REMARK    5  A    between atoms: _7  and  _8
REMARK    6  A    between atoms: _8  and  _9
REMARK    7  A    between atoms: _18  and  _20
REMARK    8  A    between atoms: _20  and  _21
REMARK    9  A    between atoms: _20  and  _23
REMARK   10  A    between atoms: _23  and  _24
REMARK   11  A    between atoms: _27  and  _29
REMARK   12  A    between atoms: _29  and  _30
REMARK   13  A    between atoms: _29  and  _32
REMARK   14  A    between atoms: _32  and  _33
REMARK   15  A    between atoms: _36  and  _38
REMARK   16  A    between atoms: _38  and  _39
REMARK   17  A    between atoms: _38  and  _41
REMARK   18  A    between atoms: _41  and  _42
REMARK   19  A    between atoms: _45  and  _47
REMARK   20  A    between atoms: _47  and  _48
REMARK   21  A    between atoms: _47  and  _50
REMARK   22  A    between atoms: _50  and  _51
REMARK   23  A    between atoms: _54  and  _56
REMARK   24  A    between atoms: _56  and  _57
REMARK   25  A    between atoms: _59  and  _61
REMARK   26  A    between atoms: _61  and  _62
REMARK   27  A    between atoms: _65  and  _67
REMARK   28  A    between atoms: _67  and  _68
REMARK   29  A    between atoms: _67  and  _70
REMARK   30  A    between atoms: _70  and  _71
REMARK   31  A    between atoms: _74  and  _76
REMARK   32  A    between atoms: _76  and  _77
REMARK   33  A    between atoms: _76  and  _79
REMARK   34  A    between atoms: _79  and  _80
REMARK   35  A    between atoms: _83  and  _85
REMARK   36  A    between atoms: _85  and  _86
REMARK   37  A    between atoms: _85  and  _88
REMARK   38  A    between atoms: _88  and  _89
REMARK   39  A    between atoms: _92  and  _94
REMARK   40  A    between atoms: _94  and  _95
REMARK   41  A    between atoms: _94  and  _97
REMARK   42  A    between atoms: _100  and  _102
REMARK   43  A    between atoms: _102  and  _103
REMARK   44  A    between atoms: _102  and  _105
REMARK   45  A    between atoms: _105  and  _106
REMARK   46  A    between atoms: _106  and  _107
REMARK   47  A    between atoms: _107  and  _108
REMARK   48  A    between atoms: _108  and  _109
REMARK   49  A    between atoms: _113  and  _115
REMARK   50  A    between atoms: _115  and  _116
REMARK   51  A    between atoms: _115  and  _118
REMARK   52  A    between atoms: _118  and  _119
REMARK   53  A    between atoms: _119  and  _120
REMARK   54  A    between atoms: _122  and  _124
REMARK   55  A    between atoms: _124  and  _125
REMARK   56  A    between atoms: _124  and  _127
REMARK   57  A    between atoms: _127  and  _128
REMARK   58  A    between atoms: _131  and  _133
REMARK   59  A    between atoms: _133  and  _134
REMARK   60  A    between atoms: _133  and  _136
REMARK   61  A    between atoms: _139  and  _141
REMARK   62  A    between atoms: _141  and  _142
REMARK   63  A    between atoms: _144  and  _146
REMARK   64  A    between atoms: _146  and  _147
REMARK   65  A    between atoms: _146  and  _149
REMARK   66  A    between atoms: _149  and  _150
REMARK   67  A    between atoms: _153  and  _155
REMARK   68  A    between atoms: _155  and  _156
REMARK   69  A    between atoms: _158  and  _160
REMARK   70  A    between atoms: _160  and  _161
REMARK   71  A    between atoms: _163  and  _165
REMARK   72  A    between atoms: _165  and  _166
REMARK   73  A    between atoms: _165  and  _168
REMARK   74  A    between atoms: _171  and  _173
REMARK   75  A    between atoms: _173  and  _174
REMARK   76  A    between atoms: _173  and  _176
REMARK   77  A    between atoms: _179  and  _181
REMARK   78  A    between atoms: _181  and  _182
REMARK   79  A    between atoms: _181  and  _184
REMARK   80  A    between atoms: _184  and  _185
REMARK   81  A    between atoms: _188  and  _190
REMARK   82  A    between atoms: _190  and  _191
REMARK   83  A    between atoms: _190  and  _193
REMARK   84  A    between atoms: _193  and  _194
REMARK   85  A    between atoms: _198  and  _199
REMARK   86  A    between atoms: _204  and  _206
REMARK   87  A    between atoms: _206  and  _207
REMARK   88  A    between atoms: _210  and  _212
REMARK   89  A    between atoms: _212  and  _213
REMARK   90  A    between atoms: _212  and  _215
REMARK   91  A    between atoms: _215  and  _216
REMARK   92  A    between atoms: _221  and  _223
REMARK   93  A    between atoms: _223  and  _224
REMARK   94  A    between atoms: _223  and  _226
REMARK   95  A    between atoms: _226  and  _227
REMARK   96  A    between atoms: _230  and  _232
REMARK   97  A    between atoms: _232  and  _233
REMARK   98  A    between atoms: _232  and  _235
REMARK   99  A    between atoms: _235  and  _236
REMARK  100  A    between atoms: _239  and  _241
REMARK  101  A    between atoms: _241  and  _242
REMARK  102  A    between atoms: _244  and  _246
REMARK  103  A    between atoms: _246  and  _247
REMARK  104  A    between atoms: _246  and  _249
REMARK  105  A    between atoms: _249  and  _250
REMARK  106  A    between atoms: _250  and  _251
REMARK  107  A    between atoms: _251  and  _252
REMARK  108  A    between atoms: _261  and  _263
REMARK  109  A    between atoms: _263  and  _264
REMARK  110  A    between atoms: _263  and  _266
REMARK  111  A    between atoms: _266  and  _267
REMARK  112  A    between atoms: _272  and  _274
REMARK  113  A    between atoms: _274  and  _275
REMARK  114  A    between atoms: _274  and  _277
REMARK  115  A    between atoms: _277  and  _278
REMARK  116  A    between atoms: _278  and  _279
REMARK  117  A    between atoms: _279  and  _280
REMARK  118  A    between atoms: _289  and  _291
REMARK  119  A    between atoms: _291  and  _292
REMARK  120  A    between atoms: _291  and  _294
REMARK  121  A    between atoms: _294  and  _295
REMARK  122  A    between atoms: _298  and  _300
REMARK  123  A    between atoms: _300  and  _301
REMARK  124  A    between atoms: _300  and  _303
REMARK  125  A    between atoms: _303  and  _304
REMARK  126  A    between atoms: _307  and  _309
REMARK  127  A    between atoms: _309  and  _310
REMARK  128  A    between atoms: _309  and  _312
REMARK  129  A    between atoms: _312  and  _313
REMARK  130  A    between atoms: _316  and  _318
REMARK  131  A    between atoms: _318  and  _319
REMARK  132  A    between atoms: _318  and  _321
REMARK  133  A    between atoms: _321  and  _322
REMARK  134  A    between atoms: _325  and  _327
REMARK  135  A    between atoms: _327  and  _328
REMARK  136  A    between atoms: _330  and  _332
REMARK  137  A    between atoms: _332  and  _333
REMARK  138  A    between atoms: _336  and  _338
REMARK  139  A    between atoms: _338  and  _339
REMARK  140  A    between atoms: _338  and  _341
REMARK  141  A    between atoms: _341  and  _342
REMARK  142  A    between atoms: _345  and  _347
REMARK  143  A    between atoms: _347  and  _348
REMARK  144  A    between atoms: _347  and  _350
REMARK  145  A    between atoms: _350  and  _351
REMARK  146  A    between atoms: _354  and  _356
REMARK  147  A    between atoms: _356  and  _357
REMARK  148  A    between atoms: _356  and  _359
REMARK  149  A    between atoms: _359  and  _360
REMARK  150  A    between atoms: _363  and  _365
REMARK  151  A    between atoms: _365  and  _366
REMARK  152  A    between atoms: _365  and  _368
REMARK  153  A    between atoms: _371  and  _373
REMARK  154  A    between atoms: _373  and  _374
REMARK  155  A    between atoms: _373  and  _376
REMARK  156  A    between atoms: _376  and  _377
REMARK  157  A    between atoms: _380  and  _382
REMARK  158  A    between atoms: _382  and  _383
REMARK  159  A    between atoms: _382  and  _385
REMARK  160  A    between atoms: _385  and  _386
REMARK  161  A    between atoms: _386  and  _387
REMARK  162  A    between atoms: _387  and  _388
REMARK  163  A    between atoms: _388  and  _389
REMARK  164  A    between atoms: _393  and  _395
REMARK  165  A    between atoms: _395  and  _396
REMARK  166  A    between atoms: _395  and  _398
REMARK  167  A    between atoms: _398  and  _399
REMARK  168  A    between atoms: _399  and  _400
REMARK  169  A    between atoms: _402  and  _404
REMARK  170  A    between atoms: _404  and  _405
REMARK  171  A    between atoms: _404  and  _407
REMARK  172  A    between atoms: _407  and  _408
REMARK  173  A    between atoms: _411  and  _413
REMARK  174  A    between atoms: _413  and  _414
REMARK  175  A    between atoms: _413  and  _416
REMARK  176  A    between atoms: _419  and  _421
REMARK  177  A    between atoms: _421  and  _422
REMARK  178  A    between atoms: _424  and  _426
REMARK  179  A    between atoms: _426  and  _427
REMARK  180  A    between atoms: _426  and  _429
REMARK  181  A    between atoms: _429  and  _430
REMARK  182  A    between atoms: _433  and  _435
REMARK  183  A    between atoms: _435  and  _436
REMARK  184  A    between atoms: _438  and  _440
REMARK  185  A    between atoms: _440  and  _441
REMARK  186  A    between atoms: _443  and  _445
REMARK  187  A    between atoms: _445  and  _446
REMARK  188  A    between atoms: _445  and  _448
REMARK  189  A    between atoms: _451  and  _453
REMARK  190  A    between atoms: _453  and  _454
REMARK  191  A    between atoms: _453  and  _456
REMARK  192  A    between atoms: _459  and  _461
REMARK  193  A    between atoms: _461  and  _462
REMARK  194  A    between atoms: _461  and  _464
REMARK  195  A    between atoms: _464  and  _465
REMARK  196  A    between atoms: _469  and  _470
REMARK  197  A    between atoms: _475  and  _477
REMARK  198  A    between atoms: _477  and  _478
REMARK  199  A    between atoms: _477  and  _480
REMARK  200  A    between atoms: _480  and  _481
REMARK  201  A    between atoms: _485  and  _486
REMARK  202  A    between atoms: _491  and  _493
REMARK  203  A    between atoms: _493  and  _494
REMARK  204  A    between atoms: _497  and  _499
REMARK  205  A    between atoms: _499  and  _500
REMARK  206  A    between atoms: _499  and  _502
REMARK  207  A    between atoms: _502  and  _503
REMARK  208  A    between atoms: _508  and  _510
REMARK  209  A    between atoms: _510  and  _511
REMARK  210  A    between atoms: _510  and  _513
REMARK  211  A    between atoms: _513  and  _514
REMARK  212  A    between atoms: _517  and  _519
REMARK  213  A    between atoms: _519  and  _520
REMARK  214  A    between atoms: _519  and  _522
REMARK  215  A    between atoms: _522  and  _523
REMARK  216  A    between atoms: _526  and  _528
REMARK  217  A    between atoms: _528  and  _529
REMARK  218  A    between atoms: _531  and  _533
REMARK  219  A    between atoms: _533  and  _534
REMARK  220  A    between atoms: _533  and  _536
REMARK  221  A    between atoms: _536  and  _537
REMARK  222  A    between atoms: _537  and  _538
REMARK  223  A    between atoms: _538  and  _539
REMARK  224  A    between atoms: _548  and  _550
REMARK  225  A    between atoms: _550  and  _551
REMARK  226  A    between atoms: _550  and  _553
REMARK  227  A    between atoms: _553  and  _554
REMARK                            x       y       z     vdW  Elec       q    Type
REMARK                         _______ _______ _______ _____ _____    ______ ____
ROOT
ATOM      1  O   HOH     1      14.522  37.640 -14.863  0.00  0.00    +0.000 OA
ENDROOT
TORSDOF 0
REMARK  Name = ../refined-set-2016/3ekt/3ekt_pocket.pdb
REMARK  227 active torsions:
REMARK  status: ('A' for Active; 'I' for Inactive)
REMARK    1  A    between atoms: _1  and  _3
REMARK    2  A    between atoms: _3  and  _4
REMARK    3  A    between atoms: _3  and  _6
REMARK    4  A    between atoms: _6  and  _7
REMARK    5  A    between atoms: _7  and  _8
REMARK    6  A    between atoms: _8  and  _9
REMARK    7  A    between atoms: _18  and  _20
REMARK    8  A    between atoms: _20  and  _21
REMARK    9  A    between atoms: _20  and  _23
REMARK   10  A    between atoms: _23  and  _24
REMARK   11  A    between atoms: _27  and  _29
REMARK   12  A    between atoms: _29  and  _30
REMARK   13  A    between atoms: _29  and  _32
REMARK   14  A    between atoms: _32  and  _33
REMARK   15  A    between atoms: _36  and  _38
REMARK   16  A    between atoms: _38  and  _39
REMARK   17  A    between atoms: _38  and  _41
REMARK   18  A    between atoms: _41  and  _42
REMARK   19  A    between atoms: _45  and  _47
REMARK   20  A    between atoms: _47  and  _48
REMARK   21  A    between atoms: _47  and  _50
REMARK   22  A    between atoms: _50  and  _51
REMARK   23  A    between atoms: _54  and  _56
REMARK   24  A    between atoms: _56  and  _57
REMARK   25  A    between atoms: _59  and  _61
REMARK   26  A    between atoms: _61  and  _62
REMARK   27  A    between atoms: _65  and  _67
REMARK   28  A    between atoms: _67  and  _68
REMARK   29  A    between atoms: _67  and  _70
REMARK   30  A    between atoms: _70  and  _71
REMARK   31  A    between atoms: _74  and  _76
REMARK   32  A    between atoms: _76  and  _77
REMARK   33  A    between atoms: _76  and  _79
REMARK   34  A    between atoms: _79  and  _80
REMARK   35  A    between atoms: _83  and  _85
REMARK   36  A    between atoms: _85  and  _86
REMARK   37  A    between atoms: _85  and  _88
REMARK   38  A    between atoms: _88  and  _89
REMARK   39  A    between atoms: _92  and  _94
REMARK   40  A    between atoms: _94  and  _95
REMARK   41  A    between atoms: _94  and  _97
REMARK   42  A    between atoms: _100  and  _102
REMARK   43  A    between atoms: _102  and  _103
REMARK   44  A    between atoms: _102  and  _105
REMARK   45  A    between atoms: _105  and  _106
REMARK   46  A    between atoms: _106  and  _107
REMARK   47  A    between atoms: _107  and  _108
REMARK   48  A    between atoms: _108  and  _109
REMARK   49  A    between atoms: _113  and  _115
REMARK   50  A    between atoms: _115  and  _116
REMARK   51  A    between atoms: _115  and  _118
REMARK   52  A    between atoms: _118  and  _119
REMARK   53  A    between atoms: _119  and  _120
REMARK   54  A    between atoms: _122  and  _124
REMARK   55  A    between atoms: _124  and  _125
REMARK   56  A    between atoms: _124  and  _127
REMARK   57  A    between atoms: _127  and  _128
REMARK   58  A    between atoms: _131  and  _133
REMARK   59  A    between atoms: _133  and  _134
REMARK   60  A    between atoms: _133  and  _136
REMARK   61  A    between atoms: _139  and  _141
REMARK   62  A    between atoms: _141  and  _142
REMARK   63  A    between atoms: _144  and  _146
REMARK   64  A    between atoms: _146  and  _147
REMARK   65  A    between atoms: _146  and  _149
REMARK   66  A    between atoms: _149  and  _150
REMARK   67  A    between atoms: _153  and  _155
REMARK   68  A    between atoms: _155  and  _156
REMARK   69  A    between atoms: _158  and  _160
REMARK   70  A    between atoms: _160  and  _161
REMARK   71  A    between atoms: _163  and  _165
REMARK   72  A    between atoms: _165  and  _166
REMARK   73  A    between atoms: _165  and  _168
REMARK   74  A    between atoms: _171  and  _173
REMARK   75  A    between atoms: _173  and  _174
REMARK   76  A    between atoms: _173  and  _176
REMARK   77  A    between atoms: _179  and  _181
REMARK   78  A    between atoms: _181  and  _182
REMARK   79  A    between atoms: _181  and  _184
REMARK   80  A    between atoms: _184  and  _185
REMARK   81  A    between atoms: _188  and  _190
REMARK   82  A    between atoms: _190  and  _191
REMARK   83  A    between atoms: _190  and  _193
REMARK   84  A    between atoms: _193  and  _194
REMARK   85  A    between atoms: _198  and  _199
REMARK   86  A    between atoms: _204  and  _206
REMARK   87  A    between atoms: _206  and  _207
REMARK   88  A    between atoms: _210  and  _212
REMARK   89  A    between atoms: _212  and  _213
REMARK   90  A    between atoms: _212  and  _215
REMARK   91  A    between atoms: _215  and  _216
REMARK   92  A    between atoms: _221  and  _223
REMARK   93  A    between atoms: _223  and  _224
REMARK   94  A    between atoms: _223  and  _226
REMARK   95  A    between atoms: _226  and  _227
REMARK   96  A    between atoms: _230  and  _232
REMARK   97  A    between atoms: _232  and  _233
REMARK   98  A    between atoms: _232  and  _235
REMARK   99  A    between atoms: _235  and  _236
REMARK  100  A    between atoms: _239  and  _241
REMARK  101  A    between atoms: _241  and  _242
REMARK  102  A    between atoms: _244  and  _246
REMARK  103  A    between atoms: _246  and  _247
REMARK  104  A    between atoms: _246  and  _249
REMARK  105  A    between atoms: _249  and  _250
REMARK  106  A    between atoms: _250  and  _251
REMARK  107  A    between atoms: _251  and  _252
REMARK  108  A    between atoms: _261  and  _263
REMARK  109  A    between atoms: _263  and  _264
REMARK  110  A    between atoms: _263  and  _266
REMARK  111  A    between atoms: _266  and  _267
REMARK  112  A    between atoms: _272  and  _274
REMARK  113  A    between atoms: _274  and  _275
REMARK  114  A    between atoms: _274  and  _277
REMARK  115  A    between atoms: _277  and  _278
REMARK  116  A    between atoms: _278  and  _279
REMARK  117  A    between atoms: _279  and  _280
REMARK  118  A    between atoms: _289  and  _291
REMARK  119  A    between atoms: _291  and  _292
REMARK  120  A    between atoms: _291  and  _294
REMARK  121  A    between atoms: _294  and  _295
REMARK  122  A    between atoms: _298  and  _300
REMARK  123  A    between atoms: _300  and  _301
REMARK  124  A    between atoms: _300  and  _303
REMARK  125  A    between atoms: _303  and  _304
REMARK  126  A    between atoms: _307  and  _309
REMARK  127  A    between atoms: _309  and  _310
REMARK  128  A    between atoms: _309  and  _312
REMARK  129  A    between atoms: _312  and  _313
REMARK  130  A    between atoms: _316  and  _318
REMARK  131  A    between atoms: _318  and  _319
REMARK  132  A    between atoms: _318  and  _321
REMARK  133  A    between atoms: _321  and  _322
REMARK  134  A    between atoms: _325  and  _327
REMARK  135  A    between atoms: _327  and  _328
REMARK  136  A    between atoms: _330  and  _332
REMARK  137  A    between atoms: _332  and  _333
REMARK  138  A    between atoms: _336  and  _338
REMARK  139  A    between atoms: _338  and  _339
REMARK  140  A    between atoms: _338  and  _341
REMARK  141  A    between atoms: _341  and  _342
REMARK  142  A    between atoms: _345  and  _347
REMARK  143  A    between atoms: _347  and  _348
REMARK  144  A    between atoms: _347  and  _350
REMARK  145  A    between atoms: _350  and  _351
REMARK  146  A    between atoms: _354  and  _356
REMARK  147  A    between atoms: _356  and  _357
REMARK  148  A    between atoms: _356  and  _359
REMARK  149  A    between atoms: _359  and  _360
REMARK  150  A    between atoms: _363  and  _365
REMARK  151  A    between atoms: _365  and  _366
REMARK  152  A    between atoms: _365  and  _368
REMARK  153  A    between atoms: _371  and  _373
REMARK  154  A    between atoms: _373  and  _374
REMARK  155  A    between atoms: _373  and  _376
REMARK  156  A    between atoms: _376  and  _377
REMARK  157  A    between atoms: _380  and  _382
REMARK  158  A    between atoms: _382  and  _383
REMARK  159  A    between atoms: _382  and  _385
REMARK  160  A    between atoms: _385  and  _386
REMARK  161  A    between atoms: _386  and  _387
REMARK  162  A    between atoms: _387  and  _388
REMARK  163  A    between atoms: _388  and  _389
REMARK  164  A    between atoms: _393  and  _395
REMARK  165  A    between atoms: _395  and  _396
REMARK  166  A    between atoms: _395  and  _398
REMARK  167  A    between atoms: _398  and  _399
REMARK  168  A    between atoms: _399  and  _400
REMARK  169  A    between atoms: _402  and  _404
REMARK  170  A    between atoms: _404  and  _405
REMARK  171  A    between atoms: _404  and  _407
REMARK  172  A    between atoms: _407  and  _408
REMARK  173  A    between atoms: _411  and  _413
REMARK  174  A    between atoms: _413  and  _414
REMARK  175  A    between atoms: _413  and  _416
REMARK  176  A    between atoms: _419  and  _421
REMARK  177  A    between atoms: _421  and  _422
REMARK  178  A    between atoms: _424  and  _426
REMARK  179  A    between atoms: _426  and  _427
REMARK  180  A    between atoms: _426  and  _429
REMARK  181  A    between atoms: _429  and  _430
REMARK  182  A    between atoms: _433  and  _435
REMARK  183  A    between atoms: _435  and  _436
REMARK  184  A    between atoms: _438  and  _440
REMARK  185  A    between atoms: _440  and  _441
REMARK  186  A    between atoms: _443  and  _445
REMARK  187  A    between atoms: _445  and  _446
REMARK  188  A    between atoms: _445  and  _448
REMARK  189  A    between atoms: _451  and  _453
REMARK  190  A    between atoms: _453  and  _454
REMARK  191  A    between atoms: _453  and  _456
REMARK  192  A    between atoms: _459  and  _461
REMARK  193  A    between atoms: _461  and  _462
REMARK  194  A    between atoms: _461  and  _464
REMARK  195  A    between atoms: _464  and  _465
REMARK  196  A    between atoms: _469  and  _470
REMARK  197  A    between atoms: _475  and  _477
REMARK  198  A    between atoms: _477  and  _478
REMARK  199  A    between atoms: _477  and  _480
REMARK  200  A    between atoms: _480  and  _481
REMARK  201  A    between atoms: _485  and  _486
REMARK  202  A    between atoms: _491  and  _493
REMARK  203  A    between atoms: _493  and  _494
REMARK  204  A    between atoms: _497  and  _499
REMARK  205  A    between atoms: _499  and  _500
REMARK  206  A    between atoms: _499  and  _502
REMARK  207  A    between atoms: _502  and  _503
REMARK  208  A    between atoms: _508  and  _510
REMARK  209  A    between atoms: _510  and  _511
REMARK  210  A    between atoms: _510  and  _513
REMARK  211  A    between atoms: _513  and  _514
REMARK  212  A    between atoms: _517  and  _519
REMARK  213  A    between atoms: _519  and  _520
REMARK  214  A    between atoms: _519  and  _522
REMARK  215  A    between atoms: _522  and  _523
REMARK  216  A    between atoms: _526  and  _528
REMARK  217  A    between atoms: _528  and  _529
REMARK  218  A    between atoms: _531  and  _533
REMARK  219  A    between atoms: _533  and  _534
REMARK  220  A    between atoms: _533  and  _536
REMARK  221  A    between atoms: _536  and  _537
REMARK  222  A    between atoms: _537  and  _538
REMARK  223  A    between atoms: _538  and  _539
REMARK  224  A    between atoms: _548  and  _550
REMARK  225  A    between atoms: _550  and  _551
REMARK  226  A    between atoms: _550  and  _553
REMARK  227  A    between atoms: _553  and  _554
REMARK                            x       y       z     vdW  Elec       q    Type
REMARK                         _______ _______ _______ _____ _____    ______ ____
ROOT
ATOM      1  O   HOH     1      17.742  46.430   1.251  0.00  0.00    +0.000 OA
ENDROOT
TORSDOF 0
REMARK  Name = ../refined-set-2016/3ekt/3ekt_pocket.pdb
REMARK  227 active torsions:
REMARK  status: ('A' for Active; 'I' for Inactive)
REMARK    1  A    between atoms: _1  and  _3
REMARK    2  A    between atoms: _3  and  _4
REMARK    3  A    between atoms: _3  and  _6
REMARK    4  A    between atoms: _6  and  _7
REMARK    5  A    between atoms: _7  and  _8
REMARK    6  A    between atoms: _8  and  _9
REMARK    7  A    between atoms: _18  and  _20
REMARK    8  A    between atoms: _20  and  _21
REMARK    9  A    between atoms: _20  and  _23
REMARK   10  A    between atoms: _23  and  _24
REMARK   11  A    between atoms: _27  and  _29
REMARK   12  A    between atoms: _29  and  _30
REMARK   13  A    between atoms: _29  and  _32
REMARK   14  A    between atoms: _32  and  _33
REMARK   15  A    between atoms: _36  and  _38
REMARK   16  A    between atoms: _38  and  _39
REMARK   17  A    between atoms: _38  and  _41
REMARK   18  A    between atoms: _41  and  _42
REMARK   19  A    between atoms: _45  and  _47
REMARK   20  A    between atoms: _47  and  _48
REMARK   21  A    between atoms: _47  and  _50
REMARK   22  A    between atoms: _50  and  _51
REMARK   23  A    between atoms: _54  and  _56
REMARK   24  A    between atoms: _56  and  _57
REMARK   25  A    between atoms: _59  and  _61
REMARK   26  A    between atoms: _61  and  _62
REMARK   27  A    between atoms: _65  and  _67
REMARK   28  A    between atoms: _67  and  _68
REMARK   29  A    between atoms: _67  and  _70
REMARK   30  A    between atoms: _70  and  _71
REMARK   31  A    between atoms: _74  and  _76
REMARK   32  A    between atoms: _76  and  _77
REMARK   33  A    between atoms: _76  and  _79
REMARK   34  A    between atoms: _79  and  _80
REMARK   35  A    between atoms: _83  and  _85
REMARK   36  A    between atoms: _85  and  _86
REMARK   37  A    between atoms: _85  and  _88
REMARK   38  A    between atoms: _88  and  _89
REMARK   39  A    between atoms: _92  and  _94
REMARK   40  A    between atoms: _94  and  _95
REMARK   41  A    between atoms: _94  and  _97
REMARK   42  A    between atoms: _100  and  _102
REMARK   43  A    between atoms: _102  and  _103
REMARK   44  A    between atoms: _102  and  _105
REMARK   45  A    between atoms: _105  and  _106
REMARK   46  A    between atoms: _106  and  _107
REMARK   47  A    between atoms: _107  and  _108
REMARK   48  A    between atoms: _108  and  _109
REMARK   49  A    between atoms: _113  and  _115
REMARK   50  A    between atoms: _115  and  _116
REMARK   51  A    between atoms: _115  and  _118
REMARK   52  A    between atoms: _118  and  _119
REMARK   53  A    between atoms: _119  and  _120
REMARK   54  A    between atoms: _122  and  _124
REMARK   55  A    between atoms: _124  and  _125
REMARK   56  A    between atoms: _124  and  _127
REMARK   57  A    between atoms: _127  and  _128
REMARK   58  A    between atoms: _131  and  _133
REMARK   59  A    between atoms: _133  and  _134
REMARK   60  A    between atoms: _133  and  _136
REMARK   61  A    between atoms: _139  and  _141
REMARK   62  A    between atoms: _141  and  _142
REMARK   63  A    between atoms: _144  and  _146
REMARK   64  A    between atoms: _146  and  _147
REMARK   65  A    between atoms: _146  and  _149
REMARK   66  A    between atoms: _149  and  _150
REMARK   67  A    between atoms: _153  and  _155
REMARK   68  A    between atoms: _155  and  _156
REMARK   69  A    between atoms: _158  and  _160
REMARK   70  A    between atoms: _160  and  _161
REMARK   71  A    between atoms: _163  and  _165
REMARK   72  A    between atoms: _165  and  _166
REMARK   73  A    between atoms: _165  and  _168
REMARK   74  A    between atoms: _171  and  _173
REMARK   75  A    between atoms: _173  and  _174
REMARK   76  A    between atoms: _173  and  _176
REMARK   77  A    between atoms: _179  and  _181
REMARK   78  A    between atoms: _181  and  _182
REMARK   79  A    between atoms: _181  and  _184
REMARK   80  A    between atoms: _184  and  _185
REMARK   81  A    between atoms: _188  and  _190
REMARK   82  A    between atoms: _190  and  _191
REMARK   83  A    between atoms: _190  and  _193
REMARK   84  A    between atoms: _193  and  _194
REMARK   85  A    between atoms: _198  and  _199
REMARK   86  A    between atoms: _204  and  _206
REMARK   87  A    between atoms: _206  and  _207
REMARK   88  A    between atoms: _210  and  _212
REMARK   89  A    between atoms: _212  and  _213
REMARK   90  A    between atoms: _212  and  _215
REMARK   91  A    between atoms: _215  and  _216
REMARK   92  A    between atoms: _221  and  _223
REMARK   93  A    between atoms: _223  and  _224
REMARK   94  A    between atoms: _223  and  _226
REMARK   95  A    between atoms: _226  and  _227
REMARK   96  A    between atoms: _230  and  _232
REMARK   97  A    between atoms: _232  and  _233
REMARK   98  A    between atoms: _232  and  _235
REMARK   99  A    between atoms: _235  and  _236
REMARK  100  A    between atoms: _239  and  _241
REMARK  101  A    between atoms: _241  and  _242
REMARK  102  A    between atoms: _244  and  _246
REMARK  103  A    between atoms: _246  and  _247
REMARK  104  A    between atoms: _246  and  _249
REMARK  105  A    between atoms: _249  and  _250
REMARK  106  A    between atoms: _250  and  _251
REMARK  107  A    between atoms: _251  and  _252
REMARK  108  A    between atoms: _261  and  _263
REMARK  109  A    between atoms: _263  and  _264
REMARK  110  A    between atoms: _263  and  _266
REMARK  111  A    between atoms: _266  and  _267
REMARK  112  A    between atoms: _272  and  _274
REMARK  113  A    between atoms: _274  and  _275
REMARK  114  A    between atoms: _274  and  _277
REMARK  115  A    between atoms: _277  and  _278
REMARK  116  A    between atoms: _278  and  _279
REMARK  117  A    between atoms: _279  and  _280
REMARK  118  A    between atoms: _289  and  _291
REMARK  119  A    between atoms: _291  and  _292
REMARK  120  A    between atoms: _291  and  _294
REMARK  121  A    between atoms: _294  and  _295
REMARK  122  A    between atoms: _298  and  _300
REMARK  123  A    between atoms: _300  and  _301
REMARK  124  A    between atoms: _300  and  _303
REMARK  125  A    between atoms: _303  and  _304
REMARK  126  A    between atoms: _307  and  _309
REMARK  127  A    between atoms: _309  and  _310
REMARK  128  A    between atoms: _309  and  _312
REMARK  129  A    between atoms: _312  and  _313
REMARK  130  A    between atoms: _316  and  _318
REMARK  131  A    between atoms: _318  and  _319
REMARK  132  A    between atoms: _318  and  _321
REMARK  133  A    between atoms: _321  and  _322
REMARK  134  A    between atoms: _325  and  _327
REMARK  135  A    between atoms: _327  and  _328
REMARK  136  A    between atoms: _330  and  _332
REMARK  137  A    between atoms: _332  and  _333
REMARK  138  A    between atoms: _336  and  _338
REMARK  139  A    between atoms: _338  and  _339
REMARK  140  A    between atoms: _338  and  _341
REMARK  141  A    between atoms: _341  and  _342
REMARK  142  A    between atoms: _345  and  _347
REMARK  143  A    between atoms: _347  and  _348
REMARK  144  A    between atoms: _347  and  _350
REMARK  145  A    between atoms: _350  and  _351
REMARK  146  A    between atoms: _354  and  _356
REMARK  147  A    between atoms: _356  and  _357
REMARK  148  A    between atoms: _356  and  _359
REMARK  149  A    between atoms: _359  and  _360
REMARK  150  A    between atoms: _363  and  _365
REMARK  151  A    between atoms: _365  and  _366
REMARK  152  A    between atoms: _365  and  _368
REMARK  153  A    between atoms: _371  and  _373
REMARK  154  A    between atoms: _373  and  _374
REMARK  155  A    between atoms: _373  and  _376
REMARK  156  A    between atoms: _376  and  _377
REMARK  157  A    between atoms: _380  and  _382
REMARK  158  A    between atoms: _382  and  _383
REMARK  159  A    between atoms: _382  and  _385
REMARK  160  A    between atoms: _385  and  _386
REMARK  161  A    between atoms: _386  and  _387
REMARK  162  A    between atoms: _387  and  _388
REMARK  163  A    between atoms: _388  and  _389
REMARK  164  A    between atoms: _393  and  _395
REMARK  165  A    between atoms: _395  and  _396
REMARK  166  A    between atoms: _395  and  _398
REMARK  167  A    between atoms: _398  and  _399
REMARK  168  A    between atoms: _399  and  _400
REMARK  169  A    between atoms: _402  and  _404
REMARK  170  A    between atoms: _404  and  _405
REMARK  171  A    between atoms: _404  and  _407
REMARK  172  A    between atoms: _407  and  _408
REMARK  173  A    between atoms: _411  and  _413
REMARK  174  A    between atoms: _413  and  _414
REMARK  175  A    between atoms: _413  and  _416
REMARK  176  A    between atoms: _419  and  _421
REMARK  177  A    between atoms: _421  and  _422
REMARK  178  A    between atoms: _424  and  _426
REMARK  179  A    between atoms: _426  and  _427
REMARK  180  A    between atoms: _426  and  _429
REMARK  181  A    between atoms: _429  and  _430
REMARK  182  A    between atoms: _433  and  _435
REMARK  183  A    between atoms: _435  and  _436
REMARK  184  A    between atoms: _438  and  _440
REMARK  185  A    between atoms: _440  and  _441
REMARK  186  A    between atoms: _443  and  _445
REMARK  187  A    between atoms: _445  and  _446
REMARK  188  A    between atoms: _445  and  _448
REMARK  189  A    between atoms: _451  and  _453
REMARK  190  A    between atoms: _453  and  _454
REMARK  191  A    between atoms: _453  and  _456
REMARK  192  A    between atoms: _459  and  _461
REMARK  193  A    between atoms: _461  and  _462
REMARK  194  A    between atoms: _461  and  _464
REMARK  195  A    between atoms: _464  and  _465
REMARK  196  A    between atoms: _469  and  _470
REMARK  197  A    between atoms: _475  and  _477
REMARK  198  A    between atoms: _477  and  _478
REMARK  199  A    between atoms: _477  and  _480
REMARK  200  A    between atoms: _480  and  _481
REMARK  201  A    between atoms: _485  and  _486
REMARK  202  A    between atoms: _491  and  _493
REMARK  203  A    between atoms: _493  and  _494
REMARK  204  A    between atoms: _497  and  _499
REMARK  205  A    between atoms: _499  and  _500
REMARK  206  A    between atoms: _499  and  _502
REMARK  207  A    between atoms: _502  and  _503
REMARK  208  A    between atoms: _508  and  _510
REMARK  209  A    between atoms: _510  and  _511
REMARK  210  A    between atoms: _510  and  _513
REMARK  211  A    between atoms: _513  and  _514
REMARK  212  A    between atoms: _517  and  _519
REMARK  213  A    between atoms: _519  and  _520
REMARK  214  A    between atoms: _519  and  _522
REMARK  215  A    between atoms: _522  and  _523
REMARK  216  A    between atoms: _526  and  _528
REMARK  217  A    between atoms: _528  and  _529
REMARK  218  A    between atoms: _531  and  _533
REMARK  219  A    between atoms: _533  and  _534
REMARK  220  A    between atoms: _533  and  _536
REMARK  221  A    between atoms: _536  and  _537
REMARK  222  A    between atoms: _537  and  _538
REMARK  223  A    between atoms: _538  and  _539
REMARK  224  A    between atoms: _548  and  _550
REMARK  225  A    between atoms: _550  and  _551
REMARK  226  A    between atoms: _550  and  _553
REMARK  227  A    between atoms: _553  and  _554
REMARK                            x       y       z     vdW  Elec       q    Type
REMARK                         _______ _______ _______ _____ _____    ______ ____
ROOT
ATOM      1  O   HOH     1      15.679  34.008 -12.005  0.00  0.00    +0.000 OA
ENDROOT
TORSDOF 0
REMARK  Name = ../refined-set-2016/3ekt/3ekt_pocket.pdb
REMARK  227 active torsions:
REMARK  status: ('A' for Active; 'I' for Inactive)
REMARK    1  A    between atoms: _1  and  _3
REMARK    2  A    between atoms: _3  and  _4
REMARK    3  A    between atoms: _3  and  _6
REMARK    4  A    between atoms: _6  and  _7
REMARK    5  A    between atoms: _7  and  _8
REMARK    6  A    between atoms: _8  and  _9
REMARK    7  A    between atoms: _18  and  _20
REMARK    8  A    between atoms: _20  and  _21
REMARK    9  A    between atoms: _20  and  _23
REMARK   10  A    between atoms: _23  and  _24
REMARK   11  A    between atoms: _27  and  _29
REMARK   12  A    between atoms: _29  and  _30
REMARK   13  A    between atoms: _29  and  _32
REMARK   14  A    between atoms: _32  and  _33
REMARK   15  A    between atoms: _36  and  _38
REMARK   16  A    between atoms: _38  and  _39
REMARK   17  A    between atoms: _38  and  _41
REMARK   18  A    between atoms: _41  and  _42
REMARK   19  A    between atoms: _45  and  _47
REMARK   20  A    between atoms: _47  and  _48
REMARK   21  A    between atoms: _47  and  _50
REMARK   22  A    between atoms: _50  and  _51
REMARK   23  A    between atoms: _54  and  _56
REMARK   24  A    between atoms: _56  and  _57
REMARK   25  A    between atoms: _59  and  _61
REMARK   26  A    between atoms: _61  and  _62
REMARK   27  A    between atoms: _65  and  _67
REMARK   28  A    between atoms: _67  and  _68
REMARK   29  A    between atoms: _67  and  _70
REMARK   30  A    between atoms: _70  and  _71
REMARK   31  A    between atoms: _74  and  _76
REMARK   32  A    between atoms: _76  and  _77
REMARK   33  A    between atoms: _76  and  _79
REMARK   34  A    between atoms: _79  and  _80
REMARK   35  A    between atoms: _83  and  _85
REMARK   36  A    between atoms: _85  and  _86
REMARK   37  A    between atoms: _85  and  _88
REMARK   38  A    between atoms: _88  and  _89
REMARK   39  A    between atoms: _92  and  _94
REMARK   40  A    between atoms: _94  and  _95
REMARK   41  A    between atoms: _94  and  _97
REMARK   42  A    between atoms: _100  and  _102
REMARK   43  A    between atoms: _102  and  _103
REMARK   44  A    between atoms: _102  and  _105
REMARK   45  A    between atoms: _105  and  _106
REMARK   46  A    between atoms: _106  and  _107
REMARK   47  A    between atoms: _107  and  _108
REMARK   48  A    between atoms: _108  and  _109
REMARK   49  A    between atoms: _113  and  _115
REMARK   50  A    between atoms: _115  and  _116
REMARK   51  A    between atoms: _115  and  _118
REMARK   52  A    between atoms: _118  and  _119
REMARK   53  A    between atoms: _119  and  _120
REMARK   54  A    between atoms: _122  and  _124
REMARK   55  A    between atoms: _124  and  _125
REMARK   56  A    between atoms: _124  and  _127
REMARK   57  A    between atoms: _127  and  _128
REMARK   58  A    between atoms: _131  and  _133
REMARK   59  A    between atoms: _133  and  _134
REMARK   60  A    between atoms: _133  and  _136
REMARK   61  A    between atoms: _139  and  _141
REMARK   62  A    between atoms: _141  and  _142
REMARK   63  A    between atoms: _144  and  _146
REMARK   64  A    between atoms: _146  and  _147
REMARK   65  A    between atoms: _146  and  _149
REMARK   66  A    between atoms: _149  and  _150
REMARK   67  A    between atoms: _153  and  _155
REMARK   68  A    between atoms: _155  and  _156
REMARK   69  A    between atoms: _158  and  _160
REMARK   70  A    between atoms: _160  and  _161
REMARK   71  A    between atoms: _163  and  _165
REMARK   72  A    between atoms: _165  and  _166
REMARK   73  A    between atoms: _165  and  _168
REMARK   74  A    between atoms: _171  and  _173
REMARK   75  A    between atoms: _173  and  _174
REMARK   76  A    between atoms: _173  and  _176
REMARK   77  A    between atoms: _179  and  _181
REMARK   78  A    between atoms: _181  and  _182
REMARK   79  A    between atoms: _181  and  _184
REMARK   80  A    between atoms: _184  and  _185
REMARK   81  A    between atoms: _188  and  _190
REMARK   82  A    between atoms: _190  and  _191
REMARK   83  A    between atoms: _190  and  _193
REMARK   84  A    between atoms: _193  and  _194
REMARK   85  A    between atoms: _198  and  _199
REMARK   86  A    between atoms: _204  and  _206
REMARK   87  A    between atoms: _206  and  _207
REMARK   88  A    between atoms: _210  and  _212
REMARK   89  A    between atoms: _212  and  _213
REMARK   90  A    between atoms: _212  and  _215
REMARK   91  A    between atoms: _215  and  _216
REMARK   92  A    between atoms: _221  and  _223
REMARK   93  A    between atoms: _223  and  _224
REMARK   94  A    between atoms: _223  and  _226
REMARK   95  A    between atoms: _226  and  _227
REMARK   96  A    between atoms: _230  and  _232
REMARK   97  A    between atoms: _232  and  _233
REMARK   98  A    between atoms: _232  and  _235
REMARK   99  A    between atoms: _235  and  _236
REMARK  100  A    between atoms: _239  and  _241
REMARK  101  A    between atoms: _241  and  _242
REMARK  102  A    between atoms: _244  and  _246
REMARK  103  A    between atoms: _246  and  _247
REMARK  104  A    between atoms: _246  and  _249
REMARK  105  A    between atoms: _249  and  _250
REMARK  106  A    between atoms: _250  and  _251
REMARK  107  A    between atoms: _251  and  _252
REMARK  108  A    between atoms: _261  and  _263
REMARK  109  A    between atoms: _263  and  _264
REMARK  110  A    between atoms: _263  and  _266
REMARK  111  A    between atoms: _266  and  _267
REMARK  112  A    between atoms: _272  and  _274
REMARK  113  A    between atoms: _274  and  _275
REMARK  114  A    between atoms: _274  and  _277
REMARK  115  A    between atoms: _277  and  _278
REMARK  116  A    between atoms: _278  and  _279
REMARK  117  A    between atoms: _279  and  _280
REMARK  118  A    between atoms: _289  and  _291
REMARK  119  A    between atoms: _291  and  _292
REMARK  120  A    between atoms: _291  and  _294
REMARK  121  A    between atoms: _294  and  _295
REMARK  122  A    between atoms: _298  and  _300
REMARK  123  A    between atoms: _300  and  _301
REMARK  124  A    between atoms: _300  and  _303
REMARK  125  A    between atoms: _303  and  _304
REMARK  126  A    between atoms: _307  and  _309
REMARK  127  A    between atoms: _309  and  _310
REMARK  128  A    between atoms: _309  and  _312
REMARK  129  A    between atoms: _312  and  _313
REMARK  130  A    between atoms: _316  and  _318
REMARK  131  A    between atoms: _318  and  _319
REMARK  132  A    between atoms: _318  and  _321
REMARK  133  A    between atoms: _321  and  _322
REMARK  134  A    between atoms: _325  and  _327
REMARK  135  A    between atoms: _327  and  _328
REMARK  136  A    between atoms: _330  and  _332
REMARK  137  A    between atoms: _332  and  _333
REMARK  138  A    between atoms: _336  and  _338
REMARK  139  A    between atoms: _338  and  _339
REMARK  140  A    between atoms: _338  and  _341
REMARK  141  A    between atoms: _341  and  _342
REMARK  142  A    between atoms: _345  and  _347
REMARK  143  A    between atoms: _347  and  _348
REMARK  144  A    between atoms: _347  and  _350
REMARK  145  A    between atoms: _350  and  _351
REMARK  146  A    between atoms: _354  and  _356
REMARK  147  A    between atoms: _356  and  _357
REMARK  148  A    between atoms: _356  and  _359
REMARK  149  A    between atoms: _359  and  _360
REMARK  150  A    between atoms: _363  and  _365
REMARK  151  A    between atoms: _365  and  _366
REMARK  152  A    between atoms: _365  and  _368
REMARK  153  A    between atoms: _371  and  _373
REMARK  154  A    between atoms: _373  and  _374
REMARK  155  A    between atoms: _373  and  _376
REMARK  156  A    between atoms: _376  and  _377
REMARK  157  A    between atoms: _380  and  _382
REMARK  158  A    between atoms: _382  and  _383
REMARK  159  A    between atoms: _382  and  _385
REMARK  160  A    between atoms: _385  and  _386
REMARK  161  A    between atoms: _386  and  _387
REMARK  162  A    between atoms: _387  and  _388
REMARK  163  A    between atoms: _388  and  _389
REMARK  164  A    between atoms: _393  and  _395
REMARK  165  A    between atoms: _395  and  _396
REMARK  166  A    between atoms: _395  and  _398
REMARK  167  A    between atoms: _398  and  _399
REMARK  168  A    between atoms: _399  and  _400
REMARK  169  A    between atoms: _402  and  _404
REMARK  170  A    between atoms: _404  and  _405
REMARK  171  A    between atoms: _404  and  _407
REMARK  172  A    between atoms: _407  and  _408
REMARK  173  A    between atoms: _411  and  _413
REMARK  174  A    between atoms: _413  and  _414
REMARK  175  A    between atoms: _413  and  _416
REMARK  176  A    between atoms: _419  and  _421
REMARK  177  A    between atoms: _421  and  _422
REMARK  178  A    between atoms: _424  and  _426
REMARK  179  A    between atoms: _426  and  _427
REMARK  180  A    between atoms: _426  and  _429
REMARK  181  A    between atoms: _429  and  _430
REMARK  182  A    between atoms: _433  and  _435
REMARK  183  A    between atoms: _435  and  _436
REMARK  184  A    between atoms: _438  and  _440
REMARK  185  A    between atoms: _440  and  _441
REMARK  186  A    between atoms: _443  and  _445
REMARK  187  A    between atoms: _445  and  _446
REMARK  188  A    between atoms: _445  and  _448
REMARK  189  A    between atoms: _451  and  _453
REMARK  190  A    between atoms: _453  and  _454
REMARK  191  A    between atoms: _453  and  _456
REMARK  192  A    between atoms: _459  and  _461
REMARK  193  A    between atoms: _461  and  _462
REMARK  194  A    between atoms: _461  and  _464
REMARK  195  A    between atoms: _464  and  _465
REMARK  196  A    between atoms: _469  and  _470
REMARK  197  A    between atoms: _475  and  _477
REMARK  198  A    between atoms: _477  and  _478
REMARK  199  A    between atoms: _477  and  _480
REMARK  200  A    between atoms: _480  and  _481
REMARK  201  A    between atoms: _485  and  _486
REMARK  202  A    between atoms: _491  and  _493
REMARK  203  A    between atoms: _493  and  _494
REMARK  204  A    between atoms: _497  and  _499
REMARK  205  A    between atoms: _499  and  _500
REMARK  206  A    between atoms: _499  and  _502
REMARK  207  A    between atoms: _502  and  _503
REMARK  208  A    between atoms: _508  and  _510
REMARK  209  A    between atoms: _510  and  _511
REMARK  210  A    between atoms: _510  and  _513
REMARK  211  A    between atoms: _513  and  _514
REMARK  212  A    between atoms: _517  and  _519
REMARK  213  A    between atoms: _519  and  _520
REMARK  214  A    between atoms: _519  and  _522
REMARK  215  A    between atoms: _522  and  _523
REMARK  216  A    between atoms: _526  and  _528
REMARK  217  A    between atoms: _528  and  _529
REMARK  218  A    between atoms: _531  and  _533
REMARK  219  A    between atoms: _533  and  _534
REMARK  220  A    between atoms: _533  and  _536
REMARK  221  A    between atoms: _536  and  _537
REMARK  222  A    between atoms: _537  and  _538
REMARK  223  A    between atoms: _538  and  _539
REMARK  224  A    between atoms: _548  and  _550
REMARK  225  A    between atoms: _550  and  _551
REMARK  226  A    between atoms: _550  and  _553
REMARK  227  A    between atoms: _553  and  _554
REMARK                            x       y       z     vdW  Elec       q    Type
REMARK                         _______ _______ _______ _____ _____    ______ ____
ROOT
ATOM      1  O   HOH     1      15.868  28.707  -8.965  0.00  0.00    +0.000 OA
ENDROOT
TORSDOF 0
REMARK  Name = ../refined-set-2016/3ekt/3ekt_pocket.pdb
REMARK  227 active torsions:
REMARK  status: ('A' for Active; 'I' for Inactive)
REMARK    1  A    between atoms: _1  and  _3
REMARK    2  A    between atoms: _3  and  _4
REMARK    3  A    between atoms: _3  and  _6
REMARK    4  A    between atoms: _6  and  _7
REMARK    5  A    between atoms: _7  and  _8
REMARK    6  A    between atoms: _8  and  _9
REMARK    7  A    between atoms: _18  and  _20
REMARK    8  A    between atoms: _20  and  _21
REMARK    9  A    between atoms: _20  and  _23
REMARK   10  A    between atoms: _23  and  _24
REMARK   11  A    between atoms: _27  and  _29
REMARK   12  A    between atoms: _29  and  _30
REMARK   13  A    between atoms: _29  and  _32
REMARK   14  A    between atoms: _32  and  _33
REMARK   15  A    between atoms: _36  and  _38
REMARK   16  A    between atoms: _38  and  _39
REMARK   17  A    between atoms: _38  and  _41
REMARK   18  A    between atoms: _41  and  _42
REMARK   19  A    between atoms: _45  and  _47
REMARK   20  A    between atoms: _47  and  _48
REMARK   21  A    between atoms: _47  and  _50
REMARK   22  A    between atoms: _50  and  _51
REMARK   23  A    between atoms: _54  and  _56
REMARK   24  A    between atoms: _56  and  _57
REMARK   25  A    between atoms: _59  and  _61
REMARK   26  A    between atoms: _61  and  _62
REMARK   27  A    between atoms: _65  and  _67
REMARK   28  A    between atoms: _67  and  _68
REMARK   29  A    between atoms: _67  and  _70
REMARK   30  A    between atoms: _70  and  _71
REMARK   31  A    between atoms: _74  and  _76
REMARK   32  A    between atoms: _76  and  _77
REMARK   33  A    between atoms: _76  and  _79
REMARK   34  A    between atoms: _79  and  _80
REMARK   35  A    between atoms: _83  and  _85
REMARK   36  A    between atoms: _85  and  _86
REMARK   37  A    between atoms: _85  and  _88
REMARK   38  A    between atoms: _88  and  _89
REMARK   39  A    between atoms: _92  and  _94
REMARK   40  A    between atoms: _94  and  _95
REMARK   41  A    between atoms: _94  and  _97
REMARK   42  A    between atoms: _100  and  _102
REMARK   43  A    between atoms: _102  and  _103
REMARK   44  A    between atoms: _102  and  _105
REMARK   45  A    between atoms: _105  and  _106
REMARK   46  A    between atoms: _106  and  _107
REMARK   47  A    between atoms: _107  and  _108
REMARK   48  A    between atoms: _108  and  _109
REMARK   49  A    between atoms: _113  and  _115
REMARK   50  A    between atoms: _115  and  _116
REMARK   51  A    between atoms: _115  and  _118
REMARK   52  A    between atoms: _118  and  _119
REMARK   53  A    between atoms: _119  and  _120
REMARK   54  A    between atoms: _122  and  _124
REMARK   55  A    between atoms: _124  and  _125
REMARK   56  A    between atoms: _124  and  _127
REMARK   57  A    between atoms: _127  and  _128
REMARK   58  A    between atoms: _131  and  _133
REMARK   59  A    between atoms: _133  and  _134
REMARK   60  A    between atoms: _133  and  _136
REMARK   61  A    between atoms: _139  and  _141
REMARK   62  A    between atoms: _141  and  _142
REMARK   63  A    between atoms: _144  and  _146
REMARK   64  A    between atoms: _146  and  _147
REMARK   65  A    between atoms: _146  and  _149
REMARK   66  A    between atoms: _149  and  _150
REMARK   67  A    between atoms: _153  and  _155
REMARK   68  A    between atoms: _155  and  _156
REMARK   69  A    between atoms: _158  and  _160
REMARK   70  A    between atoms: _160  and  _161
REMARK   71  A    between atoms: _163  and  _165
REMARK   72  A    between atoms: _165  and  _166
REMARK   73  A    between atoms: _165  and  _168
REMARK   74  A    between atoms: _171  and  _173
REMARK   75  A    between atoms: _173  and  _174
REMARK   76  A    between atoms: _173  and  _176
REMARK   77  A    between atoms: _179  and  _181
REMARK   78  A    between atoms: _181  and  _182
REMARK   79  A    between atoms: _181  and  _184
REMARK   80  A    between atoms: _184  and  _185
REMARK   81  A    between atoms: _188  and  _190
REMARK   82  A    between atoms: _190  and  _191
REMARK   83  A    between atoms: _190  and  _193
REMARK   84  A    between atoms: _193  and  _194
REMARK   85  A    between atoms: _198  and  _199
REMARK   86  A    between atoms: _204  and  _206
REMARK   87  A    between atoms: _206  and  _207
REMARK   88  A    between atoms: _210  and  _212
REMARK   89  A    between atoms: _212  and  _213
REMARK   90  A    between atoms: _212  and  _215
REMARK   91  A    between atoms: _215  and  _216
REMARK   92  A    between atoms: _221  and  _223
REMARK   93  A    between atoms: _223  and  _224
REMARK   94  A    between atoms: _223  and  _226
REMARK   95  A    between atoms: _226  and  _227
REMARK   96  A    between atoms: _230  and  _232
REMARK   97  A    between atoms: _232  and  _233
REMARK   98  A    between atoms: _232  and  _235
REMARK   99  A    between atoms: _235  and  _236
REMARK  100  A    between atoms: _239  and  _241
REMARK  101  A    between atoms: _241  and  _242
REMARK  102  A    between atoms: _244  and  _246
REMARK  103  A    between atoms: _246  and  _247
REMARK  104  A    between atoms: _246  and  _249
REMARK  105  A    between atoms: _249  and  _250
REMARK  106  A    between atoms: _250  and  _251
REMARK  107  A    between atoms: _251  and  _252
REMARK  108  A    between atoms: _261  and  _263
REMARK  109  A    between atoms: _263  and  _264
REMARK  110  A    between atoms: _263  and  _266
REMARK  111  A    between atoms: _266  and  _267
REMARK  112  A    between atoms: _272  and  _274
REMARK  113  A    between atoms: _274  and  _275
REMARK  114  A    between atoms: _274  and  _277
REMARK  115  A    between atoms: _277  and  _278
REMARK  116  A    between atoms: _278  and  _279
REMARK  117  A    between atoms: _279  and  _280
REMARK  118  A    between atoms: _289  and  _291
REMARK  119  A    between atoms: _291  and  _292
REMARK  120  A    between atoms: _291  and  _294
REMARK  121  A    between atoms: _294  and  _295
REMARK  122  A    between atoms: _298  and  _300
REMARK  123  A    between atoms: _300  and  _301
REMARK  124  A    between atoms: _300  and  _303
REMARK  125  A    between atoms: _303  and  _304
REMARK  126  A    between atoms: _307  and  _309
REMARK  127  A    between atoms: _309  and  _310
REMARK  128  A    between atoms: _309  and  _312
REMARK  129  A    between atoms: _312  and  _313
REMARK  130  A    between atoms: _316  and  _318
REMARK  131  A    between atoms: _318  and  _319
REMARK  132  A    between atoms: _318  and  _321
REMARK  133  A    between atoms: _321  and  _322
REMARK  134  A    between atoms: _325  and  _327
REMARK  135  A    between atoms: _327  and  _328
REMARK  136  A    between atoms: _330  and  _332
REMARK  137  A    between atoms: _332  and  _333
REMARK  138  A    between atoms: _336  and  _338
REMARK  139  A    between atoms: _338  and  _339
REMARK  140  A    between atoms: _338  and  _341
REMARK  141  A    between atoms: _341  and  _342
REMARK  142  A    between atoms: _345  and  _347
REMARK  143  A    between atoms: _347  and  _348
REMARK  144  A    between atoms: _347  and  _350
REMARK  145  A    between atoms: _350  and  _351
REMARK  146  A    between atoms: _354  and  _356
REMARK  147  A    between atoms: _356  and  _357
REMARK  148  A    between atoms: _356  and  _359
REMARK  149  A    between atoms: _359  and  _360
REMARK  150  A    between atoms: _363  and  _365
REMARK  151  A    between atoms: _365  and  _366
REMARK  152  A    between atoms: _365  and  _368
REMARK  153  A    between atoms: _371  and  _373
REMARK  154  A    between atoms: _373  and  _374
REMARK  155  A    between atoms: _373  and  _376
REMARK  156  A    between atoms: _376  and  _377
REMARK  157  A    between atoms: _380  and  _382
REMARK  158  A    between atoms: _382  and  _383
REMARK  159  A    between atoms: _382  and  _385
REMARK  160  A    between atoms: _385  and  _386
REMARK  161  A    between atoms: _386  and  _387
REMARK  162  A    between atoms: _387  and  _388
REMARK  163  A    between atoms: _388  and  _389
REMARK  164  A    between atoms: _393  and  _395
REMARK  165  A    between atoms: _395  and  _396
REMARK  166  A    between atoms: _395  and  _398
REMARK  167  A    between atoms: _398  and  _399
REMARK  168  A    between atoms: _399  and  _400
REMARK  169  A    between atoms: _402  and  _404
REMARK  170  A    between atoms: _404  and  _405
REMARK  171  A    between atoms: _404  and  _407
REMARK  172  A    between atoms: _407  and  _408
REMARK  173  A    between atoms: _411  and  _413
REMARK  174  A    between atoms: _413  and  _414
REMARK  175  A    between atoms: _413  and  _416
REMARK  176  A    between atoms: _419  and  _421
REMARK  177  A    between atoms: _421  and  _422
REMARK  178  A    between atoms: _424  and  _426
REMARK  179  A    between atoms: _426  and  _427
REMARK  180  A    between atoms: _426  and  _429
REMARK  181  A    between atoms: _429  and  _430
REMARK  182  A    between atoms: _433  and  _435
REMARK  183  A    between atoms: _435  and  _436
REMARK  184  A    between atoms: _438  and  _440
REMARK  185  A    between atoms: _440  and  _441
REMARK  186  A    between atoms: _443  and  _445
REMARK  187  A    between atoms: _445  and  _446
REMARK  188  A    between atoms: _445  and  _448
REMARK  189  A    between atoms: _451  and  _453
REMARK  190  A    between atoms: _453  and  _454
REMARK  191  A    between atoms: _453  and  _456
REMARK  192  A    between atoms: _459  and  _461
REMARK  193  A    between atoms: _461  and  _462
REMARK  194  A    between atoms: _461  and  _464
REMARK  195  A    between atoms: _464  and  _465
REMARK  196  A    between atoms: _469  and  _470
REMARK  197  A    between atoms: _475  and  _477
REMARK  198  A    between atoms: _477  and  _478
REMARK  199  A    between atoms: _477  and  _480
REMARK  200  A    between atoms: _480  and  _481
REMARK  201  A    between atoms: _485  and  _486
REMARK  202  A    between atoms: _491  and  _493
REMARK  203  A    between atoms: _493  and  _494
REMARK  204  A    between atoms: _497  and  _499
REMARK  205  A    between atoms: _499  and  _500
REMARK  206  A    between atoms: _499  and  _502
REMARK  207  A    between atoms: _502  and  _503
REMARK  208  A    between atoms: _508  and  _510
REMARK  209  A    between atoms: _510  and  _511
REMARK  210  A    between atoms: _510  and  _513
REMARK  211  A    between atoms: _513  and  _514
REMARK  212  A    between atoms: _517  and  _519
REMARK  213  A    between atoms: _519  and  _520
REMARK  214  A    between atoms: _519  and  _522
REMARK  215  A    between atoms: _522  and  _523
REMARK  216  A    between atoms: _526  and  _528
REMARK  217  A    between atoms: _528  and  _529
REMARK  218  A    between atoms: _531  and  _533
REMARK  219  A    between atoms: _533  and  _534
REMARK  220  A    between atoms: _533  and  _536
REMARK  221  A    between atoms: _536  and  _537
REMARK  222  A    between atoms: _537  and  _538
REMARK  223  A    between atoms: _538  and  _539
REMARK  224  A    between atoms: _548  and  _550
REMARK  225  A    between atoms: _550  and  _551
REMARK  226  A    between atoms: _550  and  _553
REMARK  227  A    between atoms: _553  and  _554
REMARK                            x       y       z     vdW  Elec       q    Type
REMARK                         _______ _______ _______ _____ _____    ______ ____
ROOT
ATOM      1  O   HOH     1      11.116  33.737  -1.970  0.00  0.00    +0.000 OA
ENDROOT
TORSDOF 0
REMARK  Name = ../refined-set-2016/3ekt/3ekt_pocket.pdb
REMARK  227 active torsions:
REMARK  status: ('A' for Active; 'I' for Inactive)
REMARK    1  A    between atoms: _1  and  _3
REMARK    2  A    between atoms: _3  and  _4
REMARK    3  A    between atoms: _3  and  _6
REMARK    4  A    between atoms: _6  and  _7
REMARK    5  A    between atoms: _7  and  _8
REMARK    6  A    between atoms: _8  and  _9
REMARK    7  A    between atoms: _18  and  _20
REMARK    8  A    between atoms: _20  and  _21
REMARK    9  A    between atoms: _20  and  _23
REMARK   10  A    between atoms: _23  and  _24
REMARK   11  A    between atoms: _27  and  _29
REMARK   12  A    between atoms: _29  and  _30
REMARK   13  A    between atoms: _29  and  _32
REMARK   14  A    between atoms: _32  and  _33
REMARK   15  A    between atoms: _36  and  _38
REMARK   16  A    between atoms: _38  and  _39
REMARK   17  A    between atoms: _38  and  _41
REMARK   18  A    between atoms: _41  and  _42
REMARK   19  A    between atoms: _45  and  _47
REMARK   20  A    between atoms: _47  and  _48
REMARK   21  A    between atoms: _47  and  _50
REMARK   22  A    between atoms: _50  and  _51
REMARK   23  A    between atoms: _54  and  _56
REMARK   24  A    between atoms: _56  and  _57
REMARK   25  A    between atoms: _59  and  _61
REMARK   26  A    between atoms: _61  and  _62
REMARK   27  A    between atoms: _65  and  _67
REMARK   28  A    between atoms: _67  and  _68
REMARK   29  A    between atoms: _67  and  _70
REMARK   30  A    between atoms: _70  and  _71
REMARK   31  A    between atoms: _74  and  _76
REMARK   32  A    between atoms: _76  and  _77
REMARK   33  A    between atoms: _76  and  _79
REMARK   34  A    between atoms: _79  and  _80
REMARK   35  A    between atoms: _83  and  _85
REMARK   36  A    between atoms: _85  and  _86
REMARK   37  A    between atoms: _85  and  _88
REMARK   38  A    between atoms: _88  and  _89
REMARK   39  A    between atoms: _92  and  _94
REMARK   40  A    between atoms: _94  and  _95
REMARK   41  A    between atoms: _94  and  _97
REMARK   42  A    between atoms: _100  and  _102
REMARK   43  A    between atoms: _102  and  _103
REMARK   44  A    between atoms: _102  and  _105
REMARK   45  A    between atoms: _105  and  _106
REMARK   46  A    between atoms: _106  and  _107
REMARK   47  A    between atoms: _107  and  _108
REMARK   48  A    between atoms: _108  and  _109
REMARK   49  A    between atoms: _113  and  _115
REMARK   50  A    between atoms: _115  and  _116
REMARK   51  A    between atoms: _115  and  _118
REMARK   52  A    between atoms: _118  and  _119
REMARK   53  A    between atoms: _119  and  _120
REMARK   54  A    between atoms: _122  and  _124
REMARK   55  A    between atoms: _124  and  _125
REMARK   56  A    between atoms: _124  and  _127
REMARK   57  A    between atoms: _127  and  _128
REMARK   58  A    between atoms: _131  and  _133
REMARK   59  A    between atoms: _133  and  _134
REMARK   60  A    between atoms: _133  and  _136
REMARK   61  A    between atoms: _139  and  _141
REMARK   62  A    between atoms: _141  and  _142
REMARK   63  A    between atoms: _144  and  _146
REMARK   64  A    between atoms: _146  and  _147
REMARK   65  A    between atoms: _146  and  _149
REMARK   66  A    between atoms: _149  and  _150
REMARK   67  A    between atoms: _153  and  _155
REMARK   68  A    between atoms: _155  and  _156
REMARK   69  A    between atoms: _158  and  _160
REMARK   70  A    between atoms: _160  and  _161
REMARK   71  A    between atoms: _163  and  _165
REMARK   72  A    between atoms: _165  and  _166
REMARK   73  A    between atoms: _165  and  _168
REMARK   74  A    between atoms: _171  and  _173
REMARK   75  A    between atoms: _173  and  _174
REMARK   76  A    between atoms: _173  and  _176
REMARK   77  A    between atoms: _179  and  _181
REMARK   78  A    between atoms: _181  and  _182
REMARK   79  A    between atoms: _181  and  _184
REMARK   80  A    between atoms: _184  and  _185
REMARK   81  A    between atoms: _188  and  _190
REMARK   82  A    between atoms: _190  and  _191
REMARK   83  A    between atoms: _190  and  _193
REMARK   84  A    between atoms: _193  and  _194
REMARK   85  A    between atoms: _198  and  _199
REMARK   86  A    between atoms: _204  and  _206
REMARK   87  A    between atoms: _206  and  _207
REMARK   88  A    between atoms: _210  and  _212
REMARK   89  A    between atoms: _212  and  _213
REMARK   90  A    between atoms: _212  and  _215
REMARK   91  A    between atoms: _215  and  _216
REMARK   92  A    between atoms: _221  and  _223
REMARK   93  A    between atoms: _223  and  _224
REMARK   94  A    between atoms: _223  and  _226
REMARK   95  A    between atoms: _226  and  _227
REMARK   96  A    between atoms: _230  and  _232
REMARK   97  A    between atoms: _232  and  _233
REMARK   98  A    between atoms: _232  and  _235
REMARK   99  A    between atoms: _235  and  _236
REMARK  100  A    between atoms: _239  and  _241
REMARK  101  A    between atoms: _241  and  _242
REMARK  102  A    between atoms: _244  and  _246
REMARK  103  A    between atoms: _246  and  _247
REMARK  104  A    between atoms: _246  and  _249
REMARK  105  A    between atoms: _249  and  _250
REMARK  106  A    between atoms: _250  and  _251
REMARK  107  A    between atoms: _251  and  _252
REMARK  108  A    between atoms: _261  and  _263
REMARK  109  A    between atoms: _263  and  _264
REMARK  110  A    between atoms: _263  and  _266
REMARK  111  A    between atoms: _266  and  _267
REMARK  112  A    between atoms: _272  and  _274
REMARK  113  A    between atoms: _274  and  _275
REMARK  114  A    between atoms: _274  and  _277
REMARK  115  A    between atoms: _277  and  _278
REMARK  116  A    between atoms: _278  and  _279
REMARK  117  A    between atoms: _279  and  _280
REMARK  118  A    between atoms: _289  and  _291
REMARK  119  A    between atoms: _291  and  _292
REMARK  120  A    between atoms: _291  and  _294
REMARK  121  A    between atoms: _294  and  _295
REMARK  122  A    between atoms: _298  and  _300
REMARK  123  A    between atoms: _300  and  _301
REMARK  124  A    between atoms: _300  and  _303
REMARK  125  A    between atoms: _303  and  _304
REMARK  126  A    between atoms: _307  and  _309
REMARK  127  A    between atoms: _309  and  _310
REMARK  128  A    between atoms: _309  and  _312
REMARK  129  A    between atoms: _312  and  _313
REMARK  130  A    between atoms: _316  and  _318
REMARK  131  A    between atoms: _318  and  _319
REMARK  132  A    between atoms: _318  and  _321
REMARK  133  A    between atoms: _321  and  _322
REMARK  134  A    between atoms: _325  and  _327
REMARK  135  A    between atoms: _327  and  _328
REMARK  136  A    between atoms: _330  and  _332
REMARK  137  A    between atoms: _332  and  _333
REMARK  138  A    between atoms: _336  and  _338
REMARK  139  A    between atoms: _338  and  _339
REMARK  140  A    between atoms: _338  and  _341
REMARK  141  A    between atoms: _341  and  _342
REMARK  142  A    between atoms: _345  and  _347
REMARK  143  A    between atoms: _347  and  _348
REMARK  144  A    between atoms: _347  and  _350
REMARK  145  A    between atoms: _350  and  _351
REMARK  146  A    between atoms: _354  and  _356
REMARK  147  A    between atoms: _356  and  _357
REMARK  148  A    between atoms: _356  and  _359
REMARK  149  A    between atoms: _359  and  _360
REMARK  150  A    between atoms: _363  and  _365
REMARK  151  A    between atoms: _365  and  _366
REMARK  152  A    between atoms: _365  and  _368
REMARK  153  A    between atoms: _371  and  _373
REMARK  154  A    between atoms: _373  and  _374
REMARK  155  A    between atoms: _373  and  _376
REMARK  156  A    between atoms: _376  and  _377
REMARK  157  A    between atoms: _380  and  _382
REMARK  158  A    between atoms: _382  and  _383
REMARK  159  A    between atoms: _382  and  _385
REMARK  160  A    between atoms: _385  and  _386
REMARK  161  A    between atoms: _386  and  _387
REMARK  162  A    between atoms: _387  and  _388
REMARK  163  A    between atoms: _388  and  _389
REMARK  164  A    between atoms: _393  and  _395
REMARK  165  A    between atoms: _395  and  _396
REMARK  166  A    between atoms: _395  and  _398
REMARK  167  A    between atoms: _398  and  _399
REMARK  168  A    between atoms: _399  and  _400
REMARK  169  A    between atoms: _402  and  _404
REMARK  170  A    between atoms: _404  and  _405
REMARK  171  A    between atoms: _404  and  _407
REMARK  172  A    between atoms: _407  and  _408
REMARK  173  A    between atoms: _411  and  _413
REMARK  174  A    between atoms: _413  and  _414
REMARK  175  A    between atoms: _413  and  _416
REMARK  176  A    between atoms: _419  and  _421
REMARK  177  A    between atoms: _421  and  _422
REMARK  178  A    between atoms: _424  and  _426
REMARK  179  A    between atoms: _426  and  _427
REMARK  180  A    between atoms: _426  and  _429
REMARK  181  A    between atoms: _429  and  _430
REMARK  182  A    between atoms: _433  and  _435
REMARK  183  A    between atoms: _435  and  _436
REMARK  184  A    between atoms: _438  and  _440
REMARK  185  A    between atoms: _440  and  _441
REMARK  186  A    between atoms: _443  and  _445
REMARK  187  A    between atoms: _445  and  _446
REMARK  188  A    between atoms: _445  and  _448
REMARK  189  A    between atoms: _451  and  _453
REMARK  190  A    between atoms: _453  and  _454
REMARK  191  A    between atoms: _453  and  _456
REMARK  192  A    between atoms: _459  and  _461
REMARK  193  A    between atoms: _461  and  _462
REMARK  194  A    between atoms: _461  and  _464
REMARK  195  A    between atoms: _464  and  _465
REMARK  196  A    between atoms: _469  and  _470
REMARK  197  A    between atoms: _475  and  _477
REMARK  198  A    between atoms: _477  and  _478
REMARK  199  A    between atoms: _477  and  _480
REMARK  200  A    between atoms: _480  and  _481
REMARK  201  A    between atoms: _485  and  _486
REMARK  202  A    between atoms: _491  and  _493
REMARK  203  A    between atoms: _493  and  _494
REMARK  204  A    between atoms: _497  and  _499
REMARK  205  A    between atoms: _499  and  _500
REMARK  206  A    between atoms: _499  and  _502
REMARK  207  A    between atoms: _502  and  _503
REMARK  208  A    between atoms: _508  and  _510
REMARK  209  A    between atoms: _510  and  _511
REMARK  210  A    between atoms: _510  and  _513
REMARK  211  A    between atoms: _513  and  _514
REMARK  212  A    between atoms: _517  and  _519
REMARK  213  A    between atoms: _519  and  _520
REMARK  214  A    between atoms: _519  and  _522
REMARK  215  A    between atoms: _522  and  _523
REMARK  216  A    between atoms: _526  and  _528
REMARK  217  A    between atoms: _528  and  _529
REMARK  218  A    between atoms: _531  and  _533
REMARK  219  A    between atoms: _533  and  _534
REMARK  220  A    between atoms: _533  and  _536
REMARK  221  A    between atoms: _536  and  _537
REMARK  222  A    between atoms: _537  and  _538
REMARK  223  A    between atoms: _538  and  _539
REMARK  224  A    between atoms: _548  and  _550
REMARK  225  A    between atoms: _550  and  _551
REMARK  226  A    between atoms: _550  and  _553
REMARK  227  A    between atoms: _553  and  _554
REMARK                            x       y       z     vdW  Elec       q    Type
REMARK                         _______ _______ _______ _____ _____    ______ ____
ROOT
ATOM      1  O   HOH     1      13.197  38.455 -12.637  0.00  0.00    +0.000 OA
ENDROOT
TORSDOF 0
REMARK  Name = ../refined-set-2016/3ekt/3ekt_pocket.pdb
REMARK  227 active torsions:
REMARK  status: ('A' for Active; 'I' for Inactive)
REMARK    1  A    between atoms: _1  and  _3
REMARK    2  A    between atoms: _3  and  _4
REMARK    3  A    between atoms: _3  and  _6
REMARK    4  A    between atoms: _6  and  _7
REMARK    5  A    between atoms: _7  and  _8
REMARK    6  A    between atoms: _8  and  _9
REMARK    7  A    between atoms: _18  and  _20
REMARK    8  A    between atoms: _20  and  _21
REMARK    9  A    between atoms: _20  and  _23
REMARK   10  A    between atoms: _23  and  _24
REMARK   11  A    between atoms: _27  and  _29
REMARK   12  A    between atoms: _29  and  _30
REMARK   13  A    between atoms: _29  and  _32
REMARK   14  A    between atoms: _32  and  _33
REMARK   15  A    between atoms: _36  and  _38
REMARK   16  A    between atoms: _38  and  _39
REMARK   17  A    between atoms: _38  and  _41
REMARK   18  A    between atoms: _41  and  _42
REMARK   19  A    between atoms: _45  and  _47
REMARK   20  A    between atoms: _47  and  _48
REMARK   21  A    between atoms: _47  and  _50
REMARK   22  A    between atoms: _50  and  _51
REMARK   23  A    between atoms: _54  and  _56
REMARK   24  A    between atoms: _56  and  _57
REMARK   25  A    between atoms: _59  and  _61
REMARK   26  A    between atoms: _61  and  _62
REMARK   27  A    between atoms: _65  and  _67
REMARK   28  A    between atoms: _67  and  _68
REMARK   29  A    between atoms: _67  and  _70
REMARK   30  A    between atoms: _70  and  _71
REMARK   31  A    between atoms: _74  and  _76
REMARK   32  A    between atoms: _76  and  _77
REMARK   33  A    between atoms: _76  and  _79
REMARK   34  A    between atoms: _79  and  _80
REMARK   35  A    between atoms: _83  and  _85
REMARK   36  A    between atoms: _85  and  _86
REMARK   37  A    between atoms: _85  and  _88
REMARK   38  A    between atoms: _88  and  _89
REMARK   39  A    between atoms: _92  and  _94
REMARK   40  A    between atoms: _94  and  _95
REMARK   41  A    between atoms: _94  and  _97
REMARK   42  A    between atoms: _100  and  _102
REMARK   43  A    between atoms: _102  and  _103
REMARK   44  A    between atoms: _102  and  _105
REMARK   45  A    between atoms: _105  and  _106
REMARK   46  A    between atoms: _106  and  _107
REMARK   47  A    between atoms: _107  and  _108
REMARK   48  A    between atoms: _108  and  _109
REMARK   49  A    between atoms: _113  and  _115
REMARK   50  A    between atoms: _115  and  _116
REMARK   51  A    between atoms: _115  and  _118
REMARK   52  A    between atoms: _118  and  _119
REMARK   53  A    between atoms: _119  and  _120
REMARK   54  A    between atoms: _122  and  _124
REMARK   55  A    between atoms: _124  and  _125
REMARK   56  A    between atoms: _124  and  _127
REMARK   57  A    between atoms: _127  and  _128
REMARK   58  A    between atoms: _131  and  _133
REMARK   59  A    between atoms: _133  and  _134
REMARK   60  A    between atoms: _133  and  _136
REMARK   61  A    between atoms: _139  and  _141
REMARK   62  A    between atoms: _141  and  _142
REMARK   63  A    between atoms: _144  and  _146
REMARK   64  A    between atoms: _146  and  _147
REMARK   65  A    between atoms: _146  and  _149
REMARK   66  A    between atoms: _149  and  _150
REMARK   67  A    between atoms: _153  and  _155
REMARK   68  A    between atoms: _155  and  _156
REMARK   69  A    between atoms: _158  and  _160
REMARK   70  A    between atoms: _160  and  _161
REMARK   71  A    between atoms: _163  and  _165
REMARK   72  A    between atoms: _165  and  _166
REMARK   73  A    between atoms: _165  and  _168
REMARK   74  A    between atoms: _171  and  _173
REMARK   75  A    between atoms: _173  and  _174
REMARK   76  A    between atoms: _173  and  _176
REMARK   77  A    between atoms: _179  and  _181
REMARK   78  A    between atoms: _181  and  _182
REMARK   79  A    between atoms: _181  and  _184
REMARK   80  A    between atoms: _184  and  _185
REMARK   81  A    between atoms: _188  and  _190
REMARK   82  A    between atoms: _190  and  _191
REMARK   83  A    between atoms: _190  and  _193
REMARK   84  A    between atoms: _193  and  _194
REMARK   85  A    between atoms: _198  and  _199
REMARK   86  A    between atoms: _204  and  _206
REMARK   87  A    between atoms: _206  and  _207
REMARK   88  A    between atoms: _210  and  _212
REMARK   89  A    between atoms: _212  and  _213
REMARK   90  A    between atoms: _212  and  _215
REMARK   91  A    between atoms: _215  and  _216
REMARK   92  A    between atoms: _221  and  _223
REMARK   93  A    between atoms: _223  and  _224
REMARK   94  A    between atoms: _223  and  _226
REMARK   95  A    between atoms: _226  and  _227
REMARK   96  A    between atoms: _230  and  _232
REMARK   97  A    between atoms: _232  and  _233
REMARK   98  A    between atoms: _232  and  _235
REMARK   99  A    between atoms: _235  and  _236
REMARK  100  A    between atoms: _239  and  _241
REMARK  101  A    between atoms: _241  and  _242
REMARK  102  A    between atoms: _244  and  _246
REMARK  103  A    between atoms: _246  and  _247
REMARK  104  A    between atoms: _246  and  _249
REMARK  105  A    between atoms: _249  and  _250
REMARK  106  A    between atoms: _250  and  _251
REMARK  107  A    between atoms: _251  and  _252
REMARK  108  A    between atoms: _261  and  _263
REMARK  109  A    between atoms: _263  and  _264
REMARK  110  A    between atoms: _263  and  _266
REMARK  111  A    between atoms: _266  and  _267
REMARK  112  A    between atoms: _272  and  _274
REMARK  113  A    between atoms: _274  and  _275
REMARK  114  A    between atoms: _274  and  _277
REMARK  115  A    between atoms: _277  and  _278
REMARK  116  A    between atoms: _278  and  _279
REMARK  117  A    between atoms: _279  and  _280
REMARK  118  A    between atoms: _289  and  _291
REMARK  119  A    between atoms: _291  and  _292
REMARK  120  A    between atoms: _291  and  _294
REMARK  121  A    between atoms: _294  and  _295
REMARK  122  A    between atoms: _298  and  _300
REMARK  123  A    between atoms: _300  and  _301
REMARK  124  A    between atoms: _300  and  _303
REMARK  125  A    between atoms: _303  and  _304
REMARK  126  A    between atoms: _307  and  _309
REMARK  127  A    between atoms: _309  and  _310
REMARK  128  A    between atoms: _309  and  _312
REMARK  129  A    between atoms: _312  and  _313
REMARK  130  A    between atoms: _316  and  _318
REMARK  131  A    between atoms: _318  and  _319
REMARK  132  A    between atoms: _318  and  _321
REMARK  133  A    between atoms: _321  and  _322
REMARK  134  A    between atoms: _325  and  _327
REMARK  135  A    between atoms: _327  and  _328
REMARK  136  A    between atoms: _330  and  _332
REMARK  137  A    between atoms: _332  and  _333
REMARK  138  A    between atoms: _336  and  _338
REMARK  139  A    between atoms: _338  and  _339
REMARK  140  A    between atoms: _338  and  _341
REMARK  141  A    between atoms: _341  and  _342
REMARK  142  A    between atoms: _345  and  _347
REMARK  143  A    between atoms: _347  and  _348
REMARK  144  A    between atoms: _347  and  _350
REMARK  145  A    between atoms: _350  and  _351
REMARK  146  A    between atoms: _354  and  _356
REMARK  147  A    between atoms: _356  and  _357
REMARK  148  A    between atoms: _356  and  _359
REMARK  149  A    between atoms: _359  and  _360
REMARK  150  A    between atoms: _363  and  _365
REMARK  151  A    between atoms: _365  and  _366
REMARK  152  A    between atoms: _365  and  _368
REMARK  153  A    between atoms: _371  and  _373
REMARK  154  A    between atoms: _373  and  _374
REMARK  155  A    between atoms: _373  and  _376
REMARK  156  A    between atoms: _376  and  _377
REMARK  157  A    between atoms: _380  and  _382
REMARK  158  A    between atoms: _382  and  _383
REMARK  159  A    between atoms: _382  and  _385
REMARK  160  A    between atoms: _385  and  _386
REMARK  161  A    between atoms: _386  and  _387
REMARK  162  A    between atoms: _387  and  _388
REMARK  163  A    between atoms: _388  and  _389
REMARK  164  A    between atoms: _393  and  _395
REMARK  165  A    between atoms: _395  and  _396
REMARK  166  A    between atoms: _395  and  _398
REMARK  167  A    between atoms: _398  and  _399
REMARK  168  A    between atoms: _399  and  _400
REMARK  169  A    between atoms: _402  and  _404
REMARK  170  A    between atoms: _404  and  _405
REMARK  171  A    between atoms: _404  and  _407
REMARK  172  A    between atoms: _407  and  _408
REMARK  173  A    between atoms: _411  and  _413
REMARK  174  A    between atoms: _413  and  _414
REMARK  175  A    between atoms: _413  and  _416
REMARK  176  A    between atoms: _419  and  _421
REMARK  177  A    between atoms: _421  and  _422
REMARK  178  A    between atoms: _424  and  _426
REMARK  179  A    between atoms: _426  and  _427
REMARK  180  A    between atoms: _426  and  _429
REMARK  181  A    between atoms: _429  and  _430
REMARK  182  A    between atoms: _433  and  _435
REMARK  183  A    between atoms: _435  and  _436
REMARK  184  A    between atoms: _438  and  _440
REMARK  185  A    between atoms: _440  and  _441
REMARK  186  A    between atoms: _443  and  _445
REMARK  187  A    between atoms: _445  and  _446
REMARK  188  A    between atoms: _445  and  _448
REMARK  189  A    between atoms: _451  and  _453
REMARK  190  A    between atoms: _453  and  _454
REMARK  191  A    between atoms: _453  and  _456
REMARK  192  A    between atoms: _459  and  _461
REMARK  193  A    between atoms: _461  and  _462
REMARK  194  A    between atoms: _461  and  _464
REMARK  195  A    between atoms: _464  and  _465
REMARK  196  A    between atoms: _469  and  _470
REMARK  197  A    between atoms: _475  and  _477
REMARK  198  A    between atoms: _477  and  _478
REMARK  199  A    between atoms: _477  and  _480
REMARK  200  A    between atoms: _480  and  _481
REMARK  201  A    between atoms: _485  and  _486
REMARK  202  A    between atoms: _491  and  _493
REMARK  203  A    between atoms: _493  and  _494
REMARK  204  A    between atoms: _497  and  _499
REMARK  205  A    between atoms: _499  and  _500
REMARK  206  A    between atoms: _499  and  _502
REMARK  207  A    between atoms: _502  and  _503
REMARK  208  A    between atoms: _508  and  _510
REMARK  209  A    between atoms: _510  and  _511
REMARK  210  A    between atoms: _510  and  _513
REMARK  211  A    between atoms: _513  and  _514
REMARK  212  A    between atoms: _517  and  _519
REMARK  213  A    between atoms: _519  and  _520
REMARK  214  A    between atoms: _519  and  _522
REMARK  215  A    between atoms: _522  and  _523
REMARK  216  A    between atoms: _526  and  _528
REMARK  217  A    between atoms: _528  and  _529
REMARK  218  A    between atoms: _531  and  _533
REMARK  219  A    between atoms: _533  and  _534
REMARK  220  A    between atoms: _533  and  _536
REMARK  221  A    between atoms: _536  and  _537
REMARK  222  A    between atoms: _537  and  _538
REMARK  223  A    between atoms: _538  and  _539
REMARK  224  A    between atoms: _548  and  _550
REMARK  225  A    between atoms: _550  and  _551
REMARK  226  A    between atoms: _550  and  _553
REMARK  227  A    between atoms: _553  and  _554
REMARK                            x       y       z     vdW  Elec       q    Type
REMARK                         _______ _______ _______ _____ _____    ______ ____
ROOT
ATOM      1  O   HOH     1      17.275  33.121 -10.229  0.00  0.00    +0.000 OA
ENDROOT
TORSDOF 0
REMARK  Name = ../refined-set-2016/3ekt/3ekt_pocket.pdb
REMARK  227 active torsions:
REMARK  status: ('A' for Active; 'I' for Inactive)
REMARK    1  A    between atoms: _1  and  _3
REMARK    2  A    between atoms: _3  and  _4
REMARK    3  A    between atoms: _3  and  _6
REMARK    4  A    between atoms: _6  and  _7
REMARK    5  A    between atoms: _7  and  _8
REMARK    6  A    between atoms: _8  and  _9
REMARK    7  A    between atoms: _18  and  _20
REMARK    8  A    between atoms: _20  and  _21
REMARK    9  A    between atoms: _20  and  _23
REMARK   10  A    between atoms: _23  and  _24
REMARK   11  A    between atoms: _27  and  _29
REMARK   12  A    between atoms: _29  and  _30
REMARK   13  A    between atoms: _29  and  _32
REMARK   14  A    between atoms: _32  and  _33
REMARK   15  A    between atoms: _36  and  _38
REMARK   16  A    between atoms: _38  and  _39
REMARK   17  A    between atoms: _38  and  _41
REMARK   18  A    between atoms: _41  and  _42
REMARK   19  A    between atoms: _45  and  _47
REMARK   20  A    between atoms: _47  and  _48
REMARK   21  A    between atoms: _47  and  _50
REMARK   22  A    between atoms: _50  and  _51
REMARK   23  A    between atoms: _54  and  _56
REMARK   24  A    between atoms: _56  and  _57
REMARK   25  A    between atoms: _59  and  _61
REMARK   26  A    between atoms: _61  and  _62
REMARK   27  A    between atoms: _65  and  _67
REMARK   28  A    between atoms: _67  and  _68
REMARK   29  A    between atoms: _67  and  _70
REMARK   30  A    between atoms: _70  and  _71
REMARK   31  A    between atoms: _74  and  _76
REMARK   32  A    between atoms: _76  and  _77
REMARK   33  A    between atoms: _76  and  _79
REMARK   34  A    between atoms: _79  and  _80
REMARK   35  A    between atoms: _83  and  _85
REMARK   36  A    between atoms: _85  and  _86
REMARK   37  A    between atoms: _85  and  _88
REMARK   38  A    between atoms: _88  and  _89
REMARK   39  A    between atoms: _92  and  _94
REMARK   40  A    between atoms: _94  and  _95
REMARK   41  A    between atoms: _94  and  _97
REMARK   42  A    between atoms: _100  and  _102
REMARK   43  A    between atoms: _102  and  _103
REMARK   44  A    between atoms: _102  and  _105
REMARK   45  A    between atoms: _105  and  _106
REMARK   46  A    between atoms: _106  and  _107
REMARK   47  A    between atoms: _107  and  _108
REMARK   48  A    between atoms: _108  and  _109
REMARK   49  A    between atoms: _113  and  _115
REMARK   50  A    between atoms: _115  and  _116
REMARK   51  A    between atoms: _115  and  _118
REMARK   52  A    between atoms: _118  and  _119
REMARK   53  A    between atoms: _119  and  _120
REMARK   54  A    between atoms: _122  and  _124
REMARK   55  A    between atoms: _124  and  _125
REMARK   56  A    between atoms: _124  and  _127
REMARK   57  A    between atoms: _127  and  _128
REMARK   58  A    between atoms: _131  and  _133
REMARK   59  A    between atoms: _133  and  _134
REMARK   60  A    between atoms: _133  and  _136
REMARK   61  A    between atoms: _139  and  _141
REMARK   62  A    between atoms: _141  and  _142
REMARK   63  A    between atoms: _144  and  _146
REMARK   64  A    between atoms: _146  and  _147
REMARK   65  A    between atoms: _146  and  _149
REMARK   66  A    between atoms: _149  and  _150
REMARK   67  A    between atoms: _153  and  _155
REMARK   68  A    between atoms: _155  and  _156
REMARK   69  A    between atoms: _158  and  _160
REMARK   70  A    between atoms: _160  and  _161
REMARK   71  A    between atoms: _163  and  _165
REMARK   72  A    between atoms: _165  and  _166
REMARK   73  A    between atoms: _165  and  _168
REMARK   74  A    between atoms: _171  and  _173
REMARK   75  A    between atoms: _173  and  _174
REMARK   76  A    between atoms: _173  and  _176
REMARK   77  A    between atoms: _179  and  _181
REMARK   78  A    between atoms: _181  and  _182
REMARK   79  A    between atoms: _181  and  _184
REMARK   80  A    between atoms: _184  and  _185
REMARK   81  A    between atoms: _188  and  _190
REMARK   82  A    between atoms: _190  and  _191
REMARK   83  A    between atoms: _190  and  _193
REMARK   84  A    between atoms: _193  and  _194
REMARK   85  A    between atoms: _198  and  _199
REMARK   86  A    between atoms: _204  and  _206
REMARK   87  A    between atoms: _206  and  _207
REMARK   88  A    between atoms: _210  and  _212
REMARK   89  A    between atoms: _212  and  _213
REMARK   90  A    between atoms: _212  and  _215
REMARK   91  A    between atoms: _215  and  _216
REMARK   92  A    between atoms: _221  and  _223
REMARK   93  A    between atoms: _223  and  _224
REMARK   94  A    between atoms: _223  and  _226
REMARK   95  A    between atoms: _226  and  _227
REMARK   96  A    between atoms: _230  and  _232
REMARK   97  A    between atoms: _232  and  _233
REMARK   98  A    between atoms: _232  and  _235
REMARK   99  A    between atoms: _235  and  _236
REMARK  100  A    between atoms: _239  and  _241
REMARK  101  A    between atoms: _241  and  _242
REMARK  102  A    between atoms: _244  and  _246
REMARK  103  A    between atoms: _246  and  _247
REMARK  104  A    between atoms: _246  and  _249
REMARK  105  A    between atoms: _249  and  _250
REMARK  106  A    between atoms: _250  and  _251
REMARK  107  A    between atoms: _251  and  _252
REMARK  108  A    between atoms: _261  and  _263
REMARK  109  A    between atoms: _263  and  _264
REMARK  110  A    between atoms: _263  and  _266
REMARK  111  A    between atoms: _266  and  _267
REMARK  112  A    between atoms: _272  and  _274
REMARK  113  A    between atoms: _274  and  _275
REMARK  114  A    between atoms: _274  and  _277
REMARK  115  A    between atoms: _277  and  _278
REMARK  116  A    between atoms: _278  and  _279
REMARK  117  A    between atoms: _279  and  _280
REMARK  118  A    between atoms: _289  and  _291
REMARK  119  A    between atoms: _291  and  _292
REMARK  120  A    between atoms: _291  and  _294
REMARK  121  A    between atoms: _294  and  _295
REMARK  122  A    between atoms: _298  and  _300
REMARK  123  A    between atoms: _300  and  _301
REMARK  124  A    between atoms: _300  and  _303
REMARK  125  A    between atoms: _303  and  _304
REMARK  126  A    between atoms: _307  and  _309
REMARK  127  A    between atoms: _309  and  _310
REMARK  128  A    between atoms: _309  and  _312
REMARK  129  A    between atoms: _312  and  _313
REMARK  130  A    between atoms: _316  and  _318
REMARK  131  A    between atoms: _318  and  _319
REMARK  132  A    between atoms: _318  and  _321
REMARK  133  A    between atoms: _321  and  _322
REMARK  134  A    between atoms: _325  and  _327
REMARK  135  A    between atoms: _327  and  _328
REMARK  136  A    between atoms: _330  and  _332
REMARK  137  A    between atoms: _332  and  _333
REMARK  138  A    between atoms: _336  and  _338
REMARK  139  A    between atoms: _338  and  _339
REMARK  140  A    between atoms: _338  and  _341
REMARK  141  A    between atoms: _341  and  _342
REMARK  142  A    between atoms: _345  and  _347
REMARK  143  A    between atoms: _347  and  _348
REMARK  144  A    between atoms: _347  and  _350
REMARK  145  A    between atoms: _350  and  _351
REMARK  146  A    between atoms: _354  and  _356
REMARK  147  A    between atoms: _356  and  _357
REMARK  148  A    between atoms: _356  and  _359
REMARK  149  A    between atoms: _359  and  _360
REMARK  150  A    between atoms: _363  and  _365
REMARK  151  A    between atoms: _365  and  _366
REMARK  152  A    between atoms: _365  and  _368
REMARK  153  A    between atoms: _371  and  _373
REMARK  154  A    between atoms: _373  and  _374
REMARK  155  A    between atoms: _373  and  _376
REMARK  156  A    between atoms: _376  and  _377
REMARK  157  A    between atoms: _380  and  _382
REMARK  158  A    between atoms: _382  and  _383
REMARK  159  A    between atoms: _382  and  _385
REMARK  160  A    between atoms: _385  and  _386
REMARK  161  A    between atoms: _386  and  _387
REMARK  162  A    between atoms: _387  and  _388
REMARK  163  A    between atoms: _388  and  _389
REMARK  164  A    between atoms: _393  and  _395
REMARK  165  A    between atoms: _395  and  _396
REMARK  166  A    between atoms: _395  and  _398
REMARK  167  A    between atoms: _398  and  _399
REMARK  168  A    between atoms: _399  and  _400
REMARK  169  A    between atoms: _402  and  _404
REMARK  170  A    between atoms: _404  and  _405
REMARK  171  A    between atoms: _404  and  _407
REMARK  172  A    between atoms: _407  and  _408
REMARK  173  A    between atoms: _411  and  _413
REMARK  174  A    between atoms: _413  and  _414
REMARK  175  A    between atoms: _413  and  _416
REMARK  176  A    between atoms: _419  and  _421
REMARK  177  A    between atoms: _421  and  _422
REMARK  178  A    between atoms: _424  and  _426
REMARK  179  A    between atoms: _426  and  _427
REMARK  180  A    between atoms: _426  and  _429
REMARK  181  A    between atoms: _429  and  _430
REMARK  182  A    between atoms: _433  and  _435
REMARK  183  A    between atoms: _435  and  _436
REMARK  184  A    between atoms: _438  and  _440
REMARK  185  A    between atoms: _440  and  _441
REMARK  186  A    between atoms: _443  and  _445
REMARK  187  A    between atoms: _445  and  _446
REMARK  188  A    between atoms: _445  and  _448
REMARK  189  A    between atoms: _451  and  _453
REMARK  190  A    between atoms: _453  and  _454
REMARK  191  A    between atoms: _453  and  _456
REMARK  192  A    between atoms: _459  and  _461
REMARK  193  A    between atoms: _461  and  _462
REMARK  194  A    between atoms: _461  and  _464
REMARK  195  A    between atoms: _464  and  _465
REMARK  196  A    between atoms: _469  and  _470
REMARK  197  A    between atoms: _475  and  _477
REMARK  198  A    between atoms: _477  and  _478
REMARK  199  A    between atoms: _477  and  _480
REMARK  200  A    between atoms: _480  and  _481
REMARK  201  A    between atoms: _485  and  _486
REMARK  202  A    between atoms: _491  and  _493
REMARK  203  A    between atoms: _493  and  _494
REMARK  204  A    between atoms: _497  and  _499
REMARK  205  A    between atoms: _499  and  _500
REMARK  206  A    between atoms: _499  and  _502
REMARK  207  A    between atoms: _502  and  _503
REMARK  208  A    between atoms: _508  and  _510
REMARK  209  A    between atoms: _510  and  _511
REMARK  210  A    between atoms: _510  and  _513
REMARK  211  A    between atoms: _513  and  _514
REMARK  212  A    between atoms: _517  and  _519
REMARK  213  A    between atoms: _519  and  _520
REMARK  214  A    between atoms: _519  and  _522
REMARK  215  A    between atoms: _522  and  _523
REMARK  216  A    between atoms: _526  and  _528
REMARK  217  A    between atoms: _528  and  _529
REMARK  218  A    between atoms: _531  and  _533
REMARK  219  A    between atoms: _533  and  _534
REMARK  220  A    between atoms: _533  and  _536
REMARK  221  A    between atoms: _536  and  _537
REMARK  222  A    between atoms: _537  and  _538
REMARK  223  A    between atoms: _538  and  _539
REMARK  224  A    between atoms: _548  and  _550
REMARK  225  A    between atoms: _550  and  _551
REMARK  226  A    between atoms: _550  and  _553
REMARK  227  A    between atoms: _553  and  _554
REMARK                            x       y       z     vdW  Elec       q    Type
REMARK                         _______ _______ _______ _____ _____    ______ ____
ROOT
ATOM      1  O   HOH     1      14.607  38.600 -17.226  0.00  0.00    +0.000 OA
ENDROOT
TORSDOF 0
REMARK  Name = ../refined-set-2016/3ekt/3ekt_pocket.pdb
REMARK  227 active torsions:
REMARK  status: ('A' for Active; 'I' for Inactive)
REMARK    1  A    between atoms: _1  and  _3
REMARK    2  A    between atoms: _3  and  _4
REMARK    3  A    between atoms: _3  and  _6
REMARK    4  A    between atoms: _6  and  _7
REMARK    5  A    between atoms: _7  and  _8
REMARK    6  A    between atoms: _8  and  _9
REMARK    7  A    between atoms: _18  and  _20
REMARK    8  A    between atoms: _20  and  _21
REMARK    9  A    between atoms: _20  and  _23
REMARK   10  A    between atoms: _23  and  _24
REMARK   11  A    between atoms: _27  and  _29
REMARK   12  A    between atoms: _29  and  _30
REMARK   13  A    between atoms: _29  and  _32
REMARK   14  A    between atoms: _32  and  _33
REMARK   15  A    between atoms: _36  and  _38
REMARK   16  A    between atoms: _38  and  _39
REMARK   17  A    between atoms: _38  and  _41
REMARK   18  A    between atoms: _41  and  _42
REMARK   19  A    between atoms: _45  and  _47
REMARK   20  A    between atoms: _47  and  _48
REMARK   21  A    between atoms: _47  and  _50
REMARK   22  A    between atoms: _50  and  _51
REMARK   23  A    between atoms: _54  and  _56
REMARK   24  A    between atoms: _56  and  _57
REMARK   25  A    between atoms: _59  and  _61
REMARK   26  A    between atoms: _61  and  _62
REMARK   27  A    between atoms: _65  and  _67
REMARK   28  A    between atoms: _67  and  _68
REMARK   29  A    between atoms: _67  and  _70
REMARK   30  A    between atoms: _70  and  _71
REMARK   31  A    between atoms: _74  and  _76
REMARK   32  A    between atoms: _76  and  _77
REMARK   33  A    between atoms: _76  and  _79
REMARK   34  A    between atoms: _79  and  _80
REMARK   35  A    between atoms: _83  and  _85
REMARK   36  A    between atoms: _85  and  _86
REMARK   37  A    between atoms: _85  and  _88
REMARK   38  A    between atoms: _88  and  _89
REMARK   39  A    between atoms: _92  and  _94
REMARK   40  A    between atoms: _94  and  _95
REMARK   41  A    between atoms: _94  and  _97
REMARK   42  A    between atoms: _100  and  _102
REMARK   43  A    between atoms: _102  and  _103
REMARK   44  A    between atoms: _102  and  _105
REMARK   45  A    between atoms: _105  and  _106
REMARK   46  A    between atoms: _106  and  _107
REMARK   47  A    between atoms: _107  and  _108
REMARK   48  A    between atoms: _108  and  _109
REMARK   49  A    between atoms: _113  and  _115
REMARK   50  A    between atoms: _115  and  _116
REMARK   51  A    between atoms: _115  and  _118
REMARK   52  A    between atoms: _118  and  _119
REMARK   53  A    between atoms: _119  and  _120
REMARK   54  A    between atoms: _122  and  _124
REMARK   55  A    between atoms: _124  and  _125
REMARK   56  A    between atoms: _124  and  _127
REMARK   57  A    between atoms: _127  and  _128
REMARK   58  A    between atoms: _131  and  _133
REMARK   59  A    between atoms: _133  and  _134
REMARK   60  A    between atoms: _133  and  _136
REMARK   61  A    between atoms: _139  and  _141
REMARK   62  A    between atoms: _141  and  _142
REMARK   63  A    between atoms: _144  and  _146
REMARK   64  A    between atoms: _146  and  _147
REMARK   65  A    between atoms: _146  and  _149
REMARK   66  A    between atoms: _149  and  _150
REMARK   67  A    between atoms: _153  and  _155
REMARK   68  A    between atoms: _155  and  _156
REMARK   69  A    between atoms: _158  and  _160
REMARK   70  A    between atoms: _160  and  _161
REMARK   71  A    between atoms: _163  and  _165
REMARK   72  A    between atoms: _165  and  _166
REMARK   73  A    between atoms: _165  and  _168
REMARK   74  A    between atoms: _171  and  _173
REMARK   75  A    between atoms: _173  and  _174
REMARK   76  A    between atoms: _173  and  _176
REMARK   77  A    between atoms: _179  and  _181
REMARK   78  A    between atoms: _181  and  _182
REMARK   79  A    between atoms: _181  and  _184
REMARK   80  A    between atoms: _184  and  _185
REMARK   81  A    between atoms: _188  and  _190
REMARK   82  A    between atoms: _190  and  _191
REMARK   83  A    between atoms: _190  and  _193
REMARK   84  A    between atoms: _193  and  _194
REMARK   85  A    between atoms: _198  and  _199
REMARK   86  A    between atoms: _204  and  _206
REMARK   87  A    between atoms: _206  and  _207
REMARK   88  A    between atoms: _210  and  _212
REMARK   89  A    between atoms: _212  and  _213
REMARK   90  A    between atoms: _212  and  _215
REMARK   91  A    between atoms: _215  and  _216
REMARK   92  A    between atoms: _221  and  _223
REMARK   93  A    between atoms: _223  and  _224
REMARK   94  A    between atoms: _223  and  _226
REMARK   95  A    between atoms: _226  and  _227
REMARK   96  A    between atoms: _230  and  _232
REMARK   97  A    between atoms: _232  and  _233
REMARK   98  A    between atoms: _232  and  _235
REMARK   99  A    between atoms: _235  and  _236
REMARK  100  A    between atoms: _239  and  _241
REMARK  101  A    between atoms: _241  and  _242
REMARK  102  A    between atoms: _244  and  _246
REMARK  103  A    between atoms: _246  and  _247
REMARK  104  A    between atoms: _246  and  _249
REMARK  105  A    between atoms: _249  and  _250
REMARK  106  A    between atoms: _250  and  _251
REMARK  107  A    between atoms: _251  and  _252
REMARK  108  A    between atoms: _261  and  _263
REMARK  109  A    between atoms: _263  and  _264
REMARK  110  A    between atoms: _263  and  _266
REMARK  111  A    between atoms: _266  and  _267
REMARK  112  A    between atoms: _272  and  _274
REMARK  113  A    between atoms: _274  and  _275
REMARK  114  A    between atoms: _274  and  _277
REMARK  115  A    between atoms: _277  and  _278
REMARK  116  A    between atoms: _278  and  _279
REMARK  117  A    between atoms: _279  and  _280
REMARK  118  A    between atoms: _289  and  _291
REMARK  119  A    between atoms: _291  and  _292
REMARK  120  A    between atoms: _291  and  _294
REMARK  121  A    between atoms: _294  and  _295
REMARK  122  A    between atoms: _298  and  _300
REMARK  123  A    between atoms: _300  and  _301
REMARK  124  A    between atoms: _300  and  _303
REMARK  125  A    between atoms: _303  and  _304
REMARK  126  A    between atoms: _307  and  _309
REMARK  127  A    between atoms: _309  and  _310
REMARK  128  A    between atoms: _309  and  _312
REMARK  129  A    between atoms: _312  and  _313
REMARK  130  A    between atoms: _316  and  _318
REMARK  131  A    between atoms: _318  and  _319
REMARK  132  A    between atoms: _318  and  _321
REMARK  133  A    between atoms: _321  and  _322
REMARK  134  A    between atoms: _325  and  _327
REMARK  135  A    between atoms: _327  and  _328
REMARK  136  A    between atoms: _330  and  _332
REMARK  137  A    between atoms: _332  and  _333
REMARK  138  A    between atoms: _336  and  _338
REMARK  139  A    between atoms: _338  and  _339
REMARK  140  A    between atoms: _338  and  _341
REMARK  141  A    between atoms: _341  and  _342
REMARK  142  A    between atoms: _345  and  _347
REMARK  143  A    between atoms: _347  and  _348
REMARK  144  A    between atoms: _347  and  _350
REMARK  145  A    between atoms: _350  and  _351
REMARK  146  A    between atoms: _354  and  _356
REMARK  147  A    between atoms: _356  and  _357
REMARK  148  A    between atoms: _356  and  _359
REMARK  149  A    between atoms: _359  and  _360
REMARK  150  A    between atoms: _363  and  _365
REMARK  151  A    between atoms: _365  and  _366
REMARK  152  A    between atoms: _365  and  _368
REMARK  153  A    between atoms: _371  and  _373
REMARK  154  A    between atoms: _373  and  _374
REMARK  155  A    between atoms: _373  and  _376
REMARK  156  A    between atoms: _376  and  _377
REMARK  157  A    between atoms: _380  and  _382
REMARK  158  A    between atoms: _382  and  _383
REMARK  159  A    between atoms: _382  and  _385
REMARK  160  A    between atoms: _385  and  _386
REMARK  161  A    between atoms: _386  and  _387
REMARK  162  A    between atoms: _387  and  _388
REMARK  163  A    between atoms: _388  and  _389
REMARK  164  A    between atoms: _393  and  _395
REMARK  165  A    between atoms: _395  and  _396
REMARK  166  A    between atoms: _395  and  _398
REMARK  167  A    between atoms: _398  and  _399
REMARK  168  A    between atoms: _399  and  _400
REMARK  169  A    between atoms: _402  and  _404
REMARK  170  A    between atoms: _404  and  _405
REMARK  171  A    between atoms: _404  and  _407
REMARK  172  A    between atoms: _407  and  _408
REMARK  173  A    between atoms: _411  and  _413
REMARK  174  A    between atoms: _413  and  _414
REMARK  175  A    between atoms: _413  and  _416
REMARK  176  A    between atoms: _419  and  _421
REMARK  177  A    between atoms: _421  and  _422
REMARK  178  A    between atoms: _424  and  _426
REMARK  179  A    between atoms: _426  and  _427
REMARK  180  A    between atoms: _426  and  _429
REMARK  181  A    between atoms: _429  and  _430
REMARK  182  A    between atoms: _433  and  _435
REMARK  183  A    between atoms: _435  and  _436
REMARK  184  A    between atoms: _438  and  _440
REMARK  185  A    between atoms: _440  and  _441
REMARK  186  A    between atoms: _443  and  _445
REMARK  187  A    between atoms: _445  and  _446
REMARK  188  A    between atoms: _445  and  _448
REMARK  189  A    between atoms: _451  and  _453
REMARK  190  A    between atoms: _453  and  _454
REMARK  191  A    between atoms: _453  and  _456
REMARK  192  A    between atoms: _459  and  _461
REMARK  193  A    between atoms: _461  and  _462
REMARK  194  A    between atoms: _461  and  _464
REMARK  195  A    between atoms: _464  and  _465
REMARK  196  A    between atoms: _469  and  _470
REMARK  197  A    between atoms: _475  and  _477
REMARK  198  A    between atoms: _477  and  _478
REMARK  199  A    between atoms: _477  and  _480
REMARK  200  A    between atoms: _480  and  _481
REMARK  201  A    between atoms: _485  and  _486
REMARK  202  A    between atoms: _491  and  _493
REMARK  203  A    between atoms: _493  and  _494
REMARK  204  A    between atoms: _497  and  _499
REMARK  205  A    between atoms: _499  and  _500
REMARK  206  A    between atoms: _499  and  _502
REMARK  207  A    between atoms: _502  and  _503
REMARK  208  A    between atoms: _508  and  _510
REMARK  209  A    between atoms: _510  and  _511
REMARK  210  A    between atoms: _510  and  _513
REMARK  211  A    between atoms: _513  and  _514
REMARK  212  A    between atoms: _517  and  _519
REMARK  213  A    between atoms: _519  and  _520
REMARK  214  A    between atoms: _519  and  _522
REMARK  215  A    between atoms: _522  and  _523
REMARK  216  A    between atoms: _526  and  _528
REMARK  217  A    between atoms: _528  and  _529
REMARK  218  A    between atoms: _531  and  _533
REMARK  219  A    between atoms: _533  and  _534
REMARK  220  A    between atoms: _533  and  _536
REMARK  221  A    between atoms: _536  and  _537
REMARK  222  A    between atoms: _537  and  _538
REMARK  223  A    between atoms: _538  and  _539
REMARK  224  A    between atoms: _548  and  _550
REMARK  225  A    between atoms: _550  and  _551
REMARK  226  A    between atoms: _550  and  _553
REMARK  227  A    between atoms: _553  and  _554
REMARK                            x       y       z     vdW  Elec       q    Type
REMARK                         _______ _______ _______ _____ _____    ______ ____
ROOT
ATOM      1  O   HOH     1      22.299  53.185 -15.614  0.00  0.00    +0.000 OA
ENDROOT
TORSDOF 0
REMARK  Name = ../refined-set-2016/3ekt/3ekt_pocket.pdb
REMARK  227 active torsions:
REMARK  status: ('A' for Active; 'I' for Inactive)
REMARK    1  A    between atoms: _1  and  _3
REMARK    2  A    between atoms: _3  and  _4
REMARK    3  A    between atoms: _3  and  _6
REMARK    4  A    between atoms: _6  and  _7
REMARK    5  A    between atoms: _7  and  _8
REMARK    6  A    between atoms: _8  and  _9
REMARK    7  A    between atoms: _18  and  _20
REMARK    8  A    between atoms: _20  and  _21
REMARK    9  A    between atoms: _20  and  _23
REMARK   10  A    between atoms: _23  and  _24
REMARK   11  A    between atoms: _27  and  _29
REMARK   12  A    between atoms: _29  and  _30
REMARK   13  A    between atoms: _29  and  _32
REMARK   14  A    between atoms: _32  and  _33
REMARK   15  A    between atoms: _36  and  _38
REMARK   16  A    between atoms: _38  and  _39
REMARK   17  A    between atoms: _38  and  _41
REMARK   18  A    between atoms: _41  and  _42
REMARK   19  A    between atoms: _45  and  _47
REMARK   20  A    between atoms: _47  and  _48
REMARK   21  A    between atoms: _47  and  _50
REMARK   22  A    between atoms: _50  and  _51
REMARK   23  A    between atoms: _54  and  _56
REMARK   24  A    between atoms: _56  and  _57
REMARK   25  A    between atoms: _59  and  _61
REMARK   26  A    between atoms: _61  and  _62
REMARK   27  A    between atoms: _65  and  _67
REMARK   28  A    between atoms: _67  and  _68
REMARK   29  A    between atoms: _67  and  _70
REMARK   30  A    between atoms: _70  and  _71
REMARK   31  A    between atoms: _74  and  _76
REMARK   32  A    between atoms: _76  and  _77
REMARK   33  A    between atoms: _76  and  _79
REMARK   34  A    between atoms: _79  and  _80
REMARK   35  A    between atoms: _83  and  _85
REMARK   36  A    between atoms: _85  and  _86
REMARK   37  A    between atoms: _85  and  _88
REMARK   38  A    between atoms: _88  and  _89
REMARK   39  A    between atoms: _92  and  _94
REMARK   40  A    between atoms: _94  and  _95
REMARK   41  A    between atoms: _94  and  _97
REMARK   42  A    between atoms: _100  and  _102
REMARK   43  A    between atoms: _102  and  _103
REMARK   44  A    between atoms: _102  and  _105
REMARK   45  A    between atoms: _105  and  _106
REMARK   46  A    between atoms: _106  and  _107
REMARK   47  A    between atoms: _107  and  _108
REMARK   48  A    between atoms: _108  and  _109
REMARK   49  A    between atoms: _113  and  _115
REMARK   50  A    between atoms: _115  and  _116
REMARK   51  A    between atoms: _115  and  _118
REMARK   52  A    between atoms: _118  and  _119
REMARK   53  A    between atoms: _119  and  _120
REMARK   54  A    between atoms: _122  and  _124
REMARK   55  A    between atoms: _124  and  _125
REMARK   56  A    between atoms: _124  and  _127
REMARK   57  A    between atoms: _127  and  _128
REMARK   58  A    between atoms: _131  and  _133
REMARK   59  A    between atoms: _133  and  _134
REMARK   60  A    between atoms: _133  and  _136
REMARK   61  A    between atoms: _139  and  _141
REMARK   62  A    between atoms: _141  and  _142
REMARK   63  A    between atoms: _144  and  _146
REMARK   64  A    between atoms: _146  and  _147
REMARK   65  A    between atoms: _146  and  _149
REMARK   66  A    between atoms: _149  and  _150
REMARK   67  A    between atoms: _153  and  _155
REMARK   68  A    between atoms: _155  and  _156
REMARK   69  A    between atoms: _158  and  _160
REMARK   70  A    between atoms: _160  and  _161
REMARK   71  A    between atoms: _163  and  _165
REMARK   72  A    between atoms: _165  and  _166
REMARK   73  A    between atoms: _165  and  _168
REMARK   74  A    between atoms: _171  and  _173
REMARK   75  A    between atoms: _173  and  _174
REMARK   76  A    between atoms: _173  and  _176
REMARK   77  A    between atoms: _179  and  _181
REMARK   78  A    between atoms: _181  and  _182
REMARK   79  A    between atoms: _181  and  _184
REMARK   80  A    between atoms: _184  and  _185
REMARK   81  A    between atoms: _188  and  _190
REMARK   82  A    between atoms: _190  and  _191
REMARK   83  A    between atoms: _190  and  _193
REMARK   84  A    between atoms: _193  and  _194
REMARK   85  A    between atoms: _198  and  _199
REMARK   86  A    between atoms: _204  and  _206
REMARK   87  A    between atoms: _206  and  _207
REMARK   88  A    between atoms: _210  and  _212
REMARK   89  A    between atoms: _212  and  _213
REMARK   90  A    between atoms: _212  and  _215
REMARK   91  A    between atoms: _215  and  _216
REMARK   92  A    between atoms: _221  and  _223
REMARK   93  A    between atoms: _223  and  _224
REMARK   94  A    between atoms: _223  and  _226
REMARK   95  A    between atoms: _226  and  _227
REMARK   96  A    between atoms: _230  and  _232
REMARK   97  A    between atoms: _232  and  _233
REMARK   98  A    between atoms: _232  and  _235
REMARK   99  A    between atoms: _235  and  _236
REMARK  100  A    between atoms: _239  and  _241
REMARK  101  A    between atoms: _241  and  _242
REMARK  102  A    between atoms: _244  and  _246
REMARK  103  A    between atoms: _246  and  _247
REMARK  104  A    between atoms: _246  and  _249
REMARK  105  A    between atoms: _249  and  _250
REMARK  106  A    between atoms: _250  and  _251
REMARK  107  A    between atoms: _251  and  _252
REMARK  108  A    between atoms: _261  and  _263
REMARK  109  A    between atoms: _263  and  _264
REMARK  110  A    between atoms: _263  and  _266
REMARK  111  A    between atoms: _266  and  _267
REMARK  112  A    between atoms: _272  and  _274
REMARK  113  A    between atoms: _274  and  _275
REMARK  114  A    between atoms: _274  and  _277
REMARK  115  A    between atoms: _277  and  _278
REMARK  116  A    between atoms: _278  and  _279
REMARK  117  A    between atoms: _279  and  _280
REMARK  118  A    between atoms: _289  and  _291
REMARK  119  A    between atoms: _291  and  _292
REMARK  120  A    between atoms: _291  and  _294
REMARK  121  A    between atoms: _294  and  _295
REMARK  122  A    between atoms: _298  and  _300
REMARK  123  A    between atoms: _300  and  _301
REMARK  124  A    between atoms: _300  and  _303
REMARK  125  A    between atoms: _303  and  _304
REMARK  126  A    between atoms: _307  and  _309
REMARK  127  A    between atoms: _309  and  _310
REMARK  128  A    between atoms: _309  and  _312
REMARK  129  A    between atoms: _312  and  _313
REMARK  130  A    between atoms: _316  and  _318
REMARK  131  A    between atoms: _318  and  _319
REMARK  132  A    between atoms: _318  and  _321
REMARK  133  A    between atoms: _321  and  _322
REMARK  134  A    between atoms: _325  and  _327
REMARK  135  A    between atoms: _327  and  _328
REMARK  136  A    between atoms: _330  and  _332
REMARK  137  A    between atoms: _332  and  _333
REMARK  138  A    between atoms: _336  and  _338
REMARK  139  A    between atoms: _338  and  _339
REMARK  140  A    between atoms: _338  and  _341
REMARK  141  A    between atoms: _341  and  _342
REMARK  142  A    between atoms: _345  and  _347
REMARK  143  A    between atoms: _347  and  _348
REMARK  144  A    between atoms: _347  and  _350
REMARK  145  A    between atoms: _350  and  _351
REMARK  146  A    between atoms: _354  and  _356
REMARK  147  A    between atoms: _356  and  _357
REMARK  148  A    between atoms: _356  and  _359
REMARK  149  A    between atoms: _359  and  _360
REMARK  150  A    between atoms: _363  and  _365
REMARK  151  A    between atoms: _365  and  _366
REMARK  152  A    between atoms: _365  and  _368
REMARK  153  A    between atoms: _371  and  _373
REMARK  154  A    between atoms: _373  and  _374
REMARK  155  A    between atoms: _373  and  _376
REMARK  156  A    between atoms: _376  and  _377
REMARK  157  A    between atoms: _380  and  _382
REMARK  158  A    between atoms: _382  and  _383
REMARK  159  A    between atoms: _382  and  _385
REMARK  160  A    between atoms: _385  and  _386
REMARK  161  A    between atoms: _386  and  _387
REMARK  162  A    between atoms: _387  and  _388
REMARK  163  A    between atoms: _388  and  _389
REMARK  164  A    between atoms: _393  and  _395
REMARK  165  A    between atoms: _395  and  _396
REMARK  166  A    between atoms: _395  and  _398
REMARK  167  A    between atoms: _398  and  _399
REMARK  168  A    between atoms: _399  and  _400
REMARK  169  A    between atoms: _402  and  _404
REMARK  170  A    between atoms: _404  and  _405
REMARK  171  A    between atoms: _404  and  _407
REMARK  172  A    between atoms: _407  and  _408
REMARK  173  A    between atoms: _411  and  _413
REMARK  174  A    between atoms: _413  and  _414
REMARK  175  A    between atoms: _413  and  _416
REMARK  176  A    between atoms: _419  and  _421
REMARK  177  A    between atoms: _421  and  _422
REMARK  178  A    between atoms: _424  and  _426
REMARK  179  A    between atoms: _426  and  _427
REMARK  180  A    between atoms: _426  and  _429
REMARK  181  A    between atoms: _429  and  _430
REMARK  182  A    between atoms: _433  and  _435
REMARK  183  A    between atoms: _435  and  _436
REMARK  184  A    between atoms: _438  and  _440
REMARK  185  A    between atoms: _440  and  _441
REMARK  186  A    between atoms: _443  and  _445
REMARK  187  A    between atoms: _445  and  _446
REMARK  188  A    between atoms: _445  and  _448
REMARK  189  A    between atoms: _451  and  _453
REMARK  190  A    between atoms: _453  and  _454
REMARK  191  A    between atoms: _453  and  _456
REMARK  192  A    between atoms: _459  and  _461
REMARK  193  A    between atoms: _461  and  _462
REMARK  194  A    between atoms: _461  and  _464
REMARK  195  A    between atoms: _464  and  _465
REMARK  196  A    between atoms: _469  and  _470
REMARK  197  A    between atoms: _475  and  _477
REMARK  198  A    between atoms: _477  and  _478
REMARK  199  A    between atoms: _477  and  _480
REMARK  200  A    between atoms: _480  and  _481
REMARK  201  A    between atoms: _485  and  _486
REMARK  202  A    between atoms: _491  and  _493
REMARK  203  A    between atoms: _493  and  _494
REMARK  204  A    between atoms: _497  and  _499
REMARK  205  A    between atoms: _499  and  _500
REMARK  206  A    between atoms: _499  and  _502
REMARK  207  A    between atoms: _502  and  _503
REMARK  208  A    between atoms: _508  and  _510
REMARK  209  A    between atoms: _510  and  _511
REMARK  210  A    between atoms: _510  and  _513
REMARK  211  A    between atoms: _513  and  _514
REMARK  212  A    between atoms: _517  and  _519
REMARK  213  A    between atoms: _519  and  _520
REMARK  214  A    between atoms: _519  and  _522
REMARK  215  A    between atoms: _522  and  _523
REMARK  216  A    between atoms: _526  and  _528
REMARK  217  A    between atoms: _528  and  _529
REMARK  218  A    between atoms: _531  and  _533
REMARK  219  A    between atoms: _533  and  _534
REMARK  220  A    between atoms: _533  and  _536
REMARK  221  A    between atoms: _536  and  _537
REMARK  222  A    between atoms: _537  and  _538
REMARK  223  A    between atoms: _538  and  _539
REMARK  224  A    between atoms: _548  and  _550
REMARK  225  A    between atoms: _550  and  _551
REMARK  226  A    between atoms: _550  and  _553
REMARK  227  A    between atoms: _553  and  _554
REMARK                            x       y       z     vdW  Elec       q    Type
REMARK                         _______ _______ _______ _____ _____    ______ ____
ROOT
ATOM      1  O   HOH     1      16.846  50.263  -5.725  0.00  0.00    +0.000 OA
ENDROOT
TORSDOF 0
REMARK  Name = ../refined-set-2016/3ekt/3ekt_pocket.pdb
REMARK  227 active torsions:
REMARK  status: ('A' for Active; 'I' for Inactive)
REMARK    1  A    between atoms: _1  and  _3
REMARK    2  A    between atoms: _3  and  _4
REMARK    3  A    between atoms: _3  and  _6
REMARK    4  A    between atoms: _6  and  _7
REMARK    5  A    between atoms: _7  and  _8
REMARK    6  A    between atoms: _8  and  _9
REMARK    7  A    between atoms: _18  and  _20
REMARK    8  A    between atoms: _20  and  _21
REMARK    9  A    between atoms: _20  and  _23
REMARK   10  A    between atoms: _23  and  _24
REMARK   11  A    between atoms: _27  and  _29
REMARK   12  A    between atoms: _29  and  _30
REMARK   13  A    between atoms: _29  and  _32
REMARK   14  A    between atoms: _32  and  _33
REMARK   15  A    between atoms: _36  and  _38
REMARK   16  A    between atoms: _38  and  _39
REMARK   17  A    between atoms: _38  and  _41
REMARK   18  A    between atoms: _41  and  _42
REMARK   19  A    between atoms: _45  and  _47
REMARK   20  A    between atoms: _47  and  _48
REMARK   21  A    between atoms: _47  and  _50
REMARK   22  A    between atoms: _50  and  _51
REMARK   23  A    between atoms: _54  and  _56
REMARK   24  A    between atoms: _56  and  _57
REMARK   25  A    between atoms: _59  and  _61
REMARK   26  A    between atoms: _61  and  _62
REMARK   27  A    between atoms: _65  and  _67
REMARK   28  A    between atoms: _67  and  _68
REMARK   29  A    between atoms: _67  and  _70
REMARK   30  A    between atoms: _70  and  _71
REMARK   31  A    between atoms: _74  and  _76
REMARK   32  A    between atoms: _76  and  _77
REMARK   33  A    between atoms: _76  and  _79
REMARK   34  A    between atoms: _79  and  _80
REMARK   35  A    between atoms: _83  and  _85
REMARK   36  A    between atoms: _85  and  _86
REMARK   37  A    between atoms: _85  and  _88
REMARK   38  A    between atoms: _88  and  _89
REMARK   39  A    between atoms: _92  and  _94
REMARK   40  A    between atoms: _94  and  _95
REMARK   41  A    between atoms: _94  and  _97
REMARK   42  A    between atoms: _100  and  _102
REMARK   43  A    between atoms: _102  and  _103
REMARK   44  A    between atoms: _102  and  _105
REMARK   45  A    between atoms: _105  and  _106
REMARK   46  A    between atoms: _106  and  _107
REMARK   47  A    between atoms: _107  and  _108
REMARK   48  A    between atoms: _108  and  _109
REMARK   49  A    between atoms: _113  and  _115
REMARK   50  A    between atoms: _115  and  _116
REMARK   51  A    between atoms: _115  and  _118
REMARK   52  A    between atoms: _118  and  _119
REMARK   53  A    between atoms: _119  and  _120
REMARK   54  A    between atoms: _122  and  _124
REMARK   55  A    between atoms: _124  and  _125
REMARK   56  A    between atoms: _124  and  _127
REMARK   57  A    between atoms: _127  and  _128
REMARK   58  A    between atoms: _131  and  _133
REMARK   59  A    between atoms: _133  and  _134
REMARK   60  A    between atoms: _133  and  _136
REMARK   61  A    between atoms: _139  and  _141
REMARK   62  A    between atoms: _141  and  _142
REMARK   63  A    between atoms: _144  and  _146
REMARK   64  A    between atoms: _146  and  _147
REMARK   65  A    between atoms: _146  and  _149
REMARK   66  A    between atoms: _149  and  _150
REMARK   67  A    between atoms: _153  and  _155
REMARK   68  A    between atoms: _155  and  _156
REMARK   69  A    between atoms: _158  and  _160
REMARK   70  A    between atoms: _160  and  _161
REMARK   71  A    between atoms: _163  and  _165
REMARK   72  A    between atoms: _165  and  _166
REMARK   73  A    between atoms: _165  and  _168
REMARK   74  A    between atoms: _171  and  _173
REMARK   75  A    between atoms: _173  and  _174
REMARK   76  A    between atoms: _173  and  _176
REMARK   77  A    between atoms: _179  and  _181
REMARK   78  A    between atoms: _181  and  _182
REMARK   79  A    between atoms: _181  and  _184
REMARK   80  A    between atoms: _184  and  _185
REMARK   81  A    between atoms: _188  and  _190
REMARK   82  A    between atoms: _190  and  _191
REMARK   83  A    between atoms: _190  and  _193
REMARK   84  A    between atoms: _193  and  _194
REMARK   85  A    between atoms: _198  and  _199
REMARK   86  A    between atoms: _204  and  _206
REMARK   87  A    between atoms: _206  and  _207
REMARK   88  A    between atoms: _210  and  _212
REMARK   89  A    between atoms: _212  and  _213
REMARK   90  A    between atoms: _212  and  _215
REMARK   91  A    between atoms: _215  and  _216
REMARK   92  A    between atoms: _221  and  _223
REMARK   93  A    between atoms: _223  and  _224
REMARK   94  A    between atoms: _223  and  _226
REMARK   95  A    between atoms: _226  and  _227
REMARK   96  A    between atoms: _230  and  _232
REMARK   97  A    between atoms: _232  and  _233
REMARK   98  A    between atoms: _232  and  _235
REMARK   99  A    between atoms: _235  and  _236
REMARK  100  A    between atoms: _239  and  _241
REMARK  101  A    between atoms: _241  and  _242
REMARK  102  A    between atoms: _244  and  _246
REMARK  103  A    between atoms: _246  and  _247
REMARK  104  A    between atoms: _246  and  _249
REMARK  105  A    between atoms: _249  and  _250
REMARK  106  A    between atoms: _250  and  _251
REMARK  107  A    between atoms: _251  and  _252
REMARK  108  A    between atoms: _261  and  _263
REMARK  109  A    between atoms: _263  and  _264
REMARK  110  A    between atoms: _263  and  _266
REMARK  111  A    between atoms: _266  and  _267
REMARK  112  A    between atoms: _272  and  _274
REMARK  113  A    between atoms: _274  and  _275
REMARK  114  A    between atoms: _274  and  _277
REMARK  115  A    between atoms: _277  and  _278
REMARK  116  A    between atoms: _278  and  _279
REMARK  117  A    between atoms: _279  and  _280
REMARK  118  A    between atoms: _289  and  _291
REMARK  119  A    between atoms: _291  and  _292
REMARK  120  A    between atoms: _291  and  _294
REMARK  121  A    between atoms: _294  and  _295
REMARK  122  A    between atoms: _298  and  _300
REMARK  123  A    between atoms: _300  and  _301
REMARK  124  A    between atoms: _300  and  _303
REMARK  125  A    between atoms: _303  and  _304
REMARK  126  A    between atoms: _307  and  _309
REMARK  127  A    between atoms: _309  and  _310
REMARK  128  A    between atoms: _309  and  _312
REMARK  129  A    between atoms: _312  and  _313
REMARK  130  A    between atoms: _316  and  _318
REMARK  131  A    between atoms: _318  and  _319
REMARK  132  A    between atoms: _318  and  _321
REMARK  133  A    between atoms: _321  and  _322
REMARK  134  A    between atoms: _325  and  _327
REMARK  135  A    between atoms: _327  and  _328
REMARK  136  A    between atoms: _330  and  _332
REMARK  137  A    between atoms: _332  and  _333
REMARK  138  A    between atoms: _336  and  _338
REMARK  139  A    between atoms: _338  and  _339
REMARK  140  A    between atoms: _338  and  _341
REMARK  141  A    between atoms: _341  and  _342
REMARK  142  A    between atoms: _345  and  _347
REMARK  143  A    between atoms: _347  and  _348
REMARK  144  A    between atoms: _347  and  _350
REMARK  145  A    between atoms: _350  and  _351
REMARK  146  A    between atoms: _354  and  _356
REMARK  147  A    between atoms: _356  and  _357
REMARK  148  A    between atoms: _356  and  _359
REMARK  149  A    between atoms: _359  and  _360
REMARK  150  A    between atoms: _363  and  _365
REMARK  151  A    between atoms: _365  and  _366
REMARK  152  A    between atoms: _365  and  _368
REMARK  153  A    between atoms: _371  and  _373
REMARK  154  A    between atoms: _373  and  _374
REMARK  155  A    between atoms: _373  and  _376
REMARK  156  A    between atoms: _376  and  _377
REMARK  157  A    between atoms: _380  and  _382
REMARK  158  A    between atoms: _382  and  _383
REMARK  159  A    between atoms: _382  and  _385
REMARK  160  A    between atoms: _385  and  _386
REMARK  161  A    between atoms: _386  and  _387
REMARK  162  A    between atoms: _387  and  _388
REMARK  163  A    between atoms: _388  and  _389
REMARK  164  A    between atoms: _393  and  _395
REMARK  165  A    between atoms: _395  and  _396
REMARK  166  A    between atoms: _395  and  _398
REMARK  167  A    between atoms: _398  and  _399
REMARK  168  A    between atoms: _399  and  _400
REMARK  169  A    between atoms: _402  and  _404
REMARK  170  A    between atoms: _404  and  _405
REMARK  171  A    between atoms: _404  and  _407
REMARK  172  A    between atoms: _407  and  _408
REMARK  173  A    between atoms: _411  and  _413
REMARK  174  A    between atoms: _413  and  _414
REMARK  175  A    between atoms: _413  and  _416
REMARK  176  A    between atoms: _419  and  _421
REMARK  177  A    between atoms: _421  and  _422
REMARK  178  A    between atoms: _424  and  _426
REMARK  179  A    between atoms: _426  and  _427
REMARK  180  A    between atoms: _426  and  _429
REMARK  181  A    between atoms: _429  and  _430
REMARK  182  A    between atoms: _433  and  _435
REMARK  183  A    between atoms: _435  and  _436
REMARK  184  A    between atoms: _438  and  _440
REMARK  185  A    between atoms: _440  and  _441
REMARK  186  A    between atoms: _443  and  _445
REMARK  187  A    between atoms: _445  and  _446
REMARK  188  A    between atoms: _445  and  _448
REMARK  189  A    between atoms: _451  and  _453
REMARK  190  A    between atoms: _453  and  _454
REMARK  191  A    between atoms: _453  and  _456
REMARK  192  A    between atoms: _459  and  _461
REMARK  193  A    between atoms: _461  and  _462
REMARK  194  A    between atoms: _461  and  _464
REMARK  195  A    between atoms: _464  and  _465
REMARK  196  A    between atoms: _469  and  _470
REMARK  197  A    between atoms: _475  and  _477
REMARK  198  A    between atoms: _477  and  _478
REMARK  199  A    between atoms: _477  and  _480
REMARK  200  A    between atoms: _480  and  _481
REMARK  201  A    between atoms: _485  and  _486
REMARK  202  A    between atoms: _491  and  _493
REMARK  203  A    between atoms: _493  and  _494
REMARK  204  A    between atoms: _497  and  _499
REMARK  205  A    between atoms: _499  and  _500
REMARK  206  A    between atoms: _499  and  _502
REMARK  207  A    between atoms: _502  and  _503
REMARK  208  A    between atoms: _508  and  _510
REMARK  209  A    between atoms: _510  and  _511
REMARK  210  A    between atoms: _510  and  _513
REMARK  211  A    between atoms: _513  and  _514
REMARK  212  A    between atoms: _517  and  _519
REMARK  213  A    between atoms: _519  and  _520
REMARK  214  A    between atoms: _519  and  _522
REMARK  215  A    between atoms: _522  and  _523
REMARK  216  A    between atoms: _526  and  _528
REMARK  217  A    between atoms: _528  and  _529
REMARK  218  A    between atoms: _531  and  _533
REMARK  219  A    between atoms: _533  and  _534
REMARK  220  A    between atoms: _533  and  _536
REMARK  221  A    between atoms: _536  and  _537
REMARK  222  A    between atoms: _537  and  _538
REMARK  223  A    between atoms: _538  and  _539
REMARK  224  A    between atoms: _548  and  _550
REMARK  225  A    between atoms: _550  and  _551
REMARK  226  A    between atoms: _550  and  _553
REMARK  227  A    between atoms: _553  and  _554
REMARK                            x       y       z     vdW  Elec       q    Type
REMARK                         _______ _______ _______ _____ _____    ______ ____
ROOT
ATOM      1  O   HOH     1      20.653  48.244  -2.720  0.00  0.00    +0.000 OA
ENDROOT
TORSDOF 0
REMARK  Name = ../refined-set-2016/3ekt/3ekt_pocket.pdb
REMARK  227 active torsions:
REMARK  status: ('A' for Active; 'I' for Inactive)
REMARK    1  A    between atoms: _1  and  _3
REMARK    2  A    between atoms: _3  and  _4
REMARK    3  A    between atoms: _3  and  _6
REMARK    4  A    between atoms: _6  and  _7
REMARK    5  A    between atoms: _7  and  _8
REMARK    6  A    between atoms: _8  and  _9
REMARK    7  A    between atoms: _18  and  _20
REMARK    8  A    between atoms: _20  and  _21
REMARK    9  A    between atoms: _20  and  _23
REMARK   10  A    between atoms: _23  and  _24
REMARK   11  A    between atoms: _27  and  _29
REMARK   12  A    between atoms: _29  and  _30
REMARK   13  A    between atoms: _29  and  _32
REMARK   14  A    between atoms: _32  and  _33
REMARK   15  A    between atoms: _36  and  _38
REMARK   16  A    between atoms: _38  and  _39
REMARK   17  A    between atoms: _38  and  _41
REMARK   18  A    between atoms: _41  and  _42
REMARK   19  A    between atoms: _45  and  _47
REMARK   20  A    between atoms: _47  and  _48
REMARK   21  A    between atoms: _47  and  _50
REMARK   22  A    between atoms: _50  and  _51
REMARK   23  A    between atoms: _54  and  _56
REMARK   24  A    between atoms: _56  and  _57
REMARK   25  A    between atoms: _59  and  _61
REMARK   26  A    between atoms: _61  and  _62
REMARK   27  A    between atoms: _65  and  _67
REMARK   28  A    between atoms: _67  and  _68
REMARK   29  A    between atoms: _67  and  _70
REMARK   30  A    between atoms: _70  and  _71
REMARK   31  A    between atoms: _74  and  _76
REMARK   32  A    between atoms: _76  and  _77
REMARK   33  A    between atoms: _76  and  _79
REMARK   34  A    between atoms: _79  and  _80
REMARK   35  A    between atoms: _83  and  _85
REMARK   36  A    between atoms: _85  and  _86
REMARK   37  A    between atoms: _85  and  _88
REMARK   38  A    between atoms: _88  and  _89
REMARK   39  A    between atoms: _92  and  _94
REMARK   40  A    between atoms: _94  and  _95
REMARK   41  A    between atoms: _94  and  _97
REMARK   42  A    between atoms: _100  and  _102
REMARK   43  A    between atoms: _102  and  _103
REMARK   44  A    between atoms: _102  and  _105
REMARK   45  A    between atoms: _105  and  _106
REMARK   46  A    between atoms: _106  and  _107
REMARK   47  A    between atoms: _107  and  _108
REMARK   48  A    between atoms: _108  and  _109
REMARK   49  A    between atoms: _113  and  _115
REMARK   50  A    between atoms: _115  and  _116
REMARK   51  A    between atoms: _115  and  _118
REMARK   52  A    between atoms: _118  and  _119
REMARK   53  A    between atoms: _119  and  _120
REMARK   54  A    between atoms: _122  and  _124
REMARK   55  A    between atoms: _124  and  _125
REMARK   56  A    between atoms: _124  and  _127
REMARK   57  A    between atoms: _127  and  _128
REMARK   58  A    between atoms: _131  and  _133
REMARK   59  A    between atoms: _133  and  _134
REMARK   60  A    between atoms: _133  and  _136
REMARK   61  A    between atoms: _139  and  _141
REMARK   62  A    between atoms: _141  and  _142
REMARK   63  A    between atoms: _144  and  _146
REMARK   64  A    between atoms: _146  and  _147
REMARK   65  A    between atoms: _146  and  _149
REMARK   66  A    between atoms: _149  and  _150
REMARK   67  A    between atoms: _153  and  _155
REMARK   68  A    between atoms: _155  and  _156
REMARK   69  A    between atoms: _158  and  _160
REMARK   70  A    between atoms: _160  and  _161
REMARK   71  A    between atoms: _163  and  _165
REMARK   72  A    between atoms: _165  and  _166
REMARK   73  A    between atoms: _165  and  _168
REMARK   74  A    between atoms: _171  and  _173
REMARK   75  A    between atoms: _173  and  _174
REMARK   76  A    between atoms: _173  and  _176
REMARK   77  A    between atoms: _179  and  _181
REMARK   78  A    between atoms: _181  and  _182
REMARK   79  A    between atoms: _181  and  _184
REMARK   80  A    between atoms: _184  and  _185
REMARK   81  A    between atoms: _188  and  _190
REMARK   82  A    between atoms: _190  and  _191
REMARK   83  A    between atoms: _190  and  _193
REMARK   84  A    between atoms: _193  and  _194
REMARK   85  A    between atoms: _198  and  _199
REMARK   86  A    between atoms: _204  and  _206
REMARK   87  A    between atoms: _206  and  _207
REMARK   88  A    between atoms: _210  and  _212
REMARK   89  A    between atoms: _212  and  _213
REMARK   90  A    between atoms: _212  and  _215
REMARK   91  A    between atoms: _215  and  _216
REMARK   92  A    between atoms: _221  and  _223
REMARK   93  A    between atoms: _223  and  _224
REMARK   94  A    between atoms: _223  and  _226
REMARK   95  A    between atoms: _226  and  _227
REMARK   96  A    between atoms: _230  and  _232
REMARK   97  A    between atoms: _232  and  _233
REMARK   98  A    between atoms: _232  and  _235
REMARK   99  A    between atoms: _235  and  _236
REMARK  100  A    between atoms: _239  and  _241
REMARK  101  A    between atoms: _241  and  _242
REMARK  102  A    between atoms: _244  and  _246
REMARK  103  A    between atoms: _246  and  _247
REMARK  104  A    between atoms: _246  and  _249
REMARK  105  A    between atoms: _249  and  _250
REMARK  106  A    between atoms: _250  and  _251
REMARK  107  A    between atoms: _251  and  _252
REMARK  108  A    between atoms: _261  and  _263
REMARK  109  A    between atoms: _263  and  _264
REMARK  110  A    between atoms: _263  and  _266
REMARK  111  A    between atoms: _266  and  _267
REMARK  112  A    between atoms: _272  and  _274
REMARK  113  A    between atoms: _274  and  _275
REMARK  114  A    between atoms: _274  and  _277
REMARK  115  A    between atoms: _277  and  _278
REMARK  116  A    between atoms: _278  and  _279
REMARK  117  A    between atoms: _279  and  _280
REMARK  118  A    between atoms: _289  and  _291
REMARK  119  A    between atoms: _291  and  _292
REMARK  120  A    between atoms: _291  and  _294
REMARK  121  A    between atoms: _294  and  _295
REMARK  122  A    between atoms: _298  and  _300
REMARK  123  A    between atoms: _300  and  _301
REMARK  124  A    between atoms: _300  and  _303
REMARK  125  A    between atoms: _303  and  _304
REMARK  126  A    between atoms: _307  and  _309
REMARK  127  A    between atoms: _309  and  _310
REMARK  128  A    between atoms: _309  and  _312
REMARK  129  A    between atoms: _312  and  _313
REMARK  130  A    between atoms: _316  and  _318
REMARK  131  A    between atoms: _318  and  _319
REMARK  132  A    between atoms: _318  and  _321
REMARK  133  A    between atoms: _321  and  _322
REMARK  134  A    between atoms: _325  and  _327
REMARK  135  A    between atoms: _327  and  _328
REMARK  136  A    between atoms: _330  and  _332
REMARK  137  A    between atoms: _332  and  _333
REMARK  138  A    between atoms: _336  and  _338
REMARK  139  A    between atoms: _338  and  _339
REMARK  140  A    between atoms: _338  and  _341
REMARK  141  A    between atoms: _341  and  _342
REMARK  142  A    between atoms: _345  and  _347
REMARK  143  A    between atoms: _347  and  _348
REMARK  144  A    between atoms: _347  and  _350
REMARK  145  A    between atoms: _350  and  _351
REMARK  146  A    between atoms: _354  and  _356
REMARK  147  A    between atoms: _356  and  _357
REMARK  148  A    between atoms: _356  and  _359
REMARK  149  A    between atoms: _359  and  _360
REMARK  150  A    between atoms: _363  and  _365
REMARK  151  A    between atoms: _365  and  _366
REMARK  152  A    between atoms: _365  and  _368
REMARK  153  A    between atoms: _371  and  _373
REMARK  154  A    between atoms: _373  and  _374
REMARK  155  A    between atoms: _373  and  _376
REMARK  156  A    between atoms: _376  and  _377
REMARK  157  A    between atoms: _380  and  _382
REMARK  158  A    between atoms: _382  and  _383
REMARK  159  A    between atoms: _382  and  _385
REMARK  160  A    between atoms: _385  and  _386
REMARK  161  A    between atoms: _386  and  _387
REMARK  162  A    between atoms: _387  and  _388
REMARK  163  A    between atoms: _388  and  _389
REMARK  164  A    between atoms: _393  and  _395
REMARK  165  A    between atoms: _395  and  _396
REMARK  166  A    between atoms: _395  and  _398
REMARK  167  A    between atoms: _398  and  _399
REMARK  168  A    between atoms: _399  and  _400
REMARK  169  A    between atoms: _402  and  _404
REMARK  170  A    between atoms: _404  and  _405
REMARK  171  A    between atoms: _404  and  _407
REMARK  172  A    between atoms: _407  and  _408
REMARK  173  A    between atoms: _411  and  _413
REMARK  174  A    between atoms: _413  and  _414
REMARK  175  A    between atoms: _413  and  _416
REMARK  176  A    between atoms: _419  and  _421
REMARK  177  A    between atoms: _421  and  _422
REMARK  178  A    between atoms: _424  and  _426
REMARK  179  A    between atoms: _426  and  _427
REMARK  180  A    between atoms: _426  and  _429
REMARK  181  A    between atoms: _429  and  _430
REMARK  182  A    between atoms: _433  and  _435
REMARK  183  A    between atoms: _435  and  _436
REMARK  184  A    between atoms: _438  and  _440
REMARK  185  A    between atoms: _440  and  _441
REMARK  186  A    between atoms: _443  and  _445
REMARK  187  A    between atoms: _445  and  _446
REMARK  188  A    between atoms: _445  and  _448
REMARK  189  A    between atoms: _451  and  _453
REMARK  190  A    between atoms: _453  and  _454
REMARK  191  A    between atoms: _453  and  _456
REMARK  192  A    between atoms: _459  and  _461
REMARK  193  A    between atoms: _461  and  _462
REMARK  194  A    between atoms: _461  and  _464
REMARK  195  A    between atoms: _464  and  _465
REMARK  196  A    between atoms: _469  and  _470
REMARK  197  A    between atoms: _475  and  _477
REMARK  198  A    between atoms: _477  and  _478
REMARK  199  A    between atoms: _477  and  _480
REMARK  200  A    between atoms: _480  and  _481
REMARK  201  A    between atoms: _485  and  _486
REMARK  202  A    between atoms: _491  and  _493
REMARK  203  A    between atoms: _493  and  _494
REMARK  204  A    between atoms: _497  and  _499
REMARK  205  A    between atoms: _499  and  _500
REMARK  206  A    between atoms: _499  and  _502
REMARK  207  A    between atoms: _502  and  _503
REMARK  208  A    between atoms: _508  and  _510
REMARK  209  A    between atoms: _510  and  _511
REMARK  210  A    between atoms: _510  and  _513
REMARK  211  A    between atoms: _513  and  _514
REMARK  212  A    between atoms: _517  and  _519
REMARK  213  A    between atoms: _519  and  _520
REMARK  214  A    between atoms: _519  and  _522
REMARK  215  A    between atoms: _522  and  _523
REMARK  216  A    between atoms: _526  and  _528
REMARK  217  A    between atoms: _528  and  _529
REMARK  218  A    between atoms: _531  and  _533
REMARK  219  A    between atoms: _533  and  _534
REMARK  220  A    between atoms: _533  and  _536
REMARK  221  A    between atoms: _536  and  _537
REMARK  222  A    between atoms: _537  and  _538
REMARK  223  A    between atoms: _538  and  _539
REMARK  224  A    between atoms: _548  and  _550
REMARK  225  A    between atoms: _550  and  _551
REMARK  226  A    between atoms: _550  and  _553
REMARK  227  A    between atoms: _553  and  _554
REMARK                            x       y       z     vdW  Elec       q    Type
REMARK                         _______ _______ _______ _____ _____    ______ ____
ROOT
ATOM      1  O   HOH     1      21.540  48.583  -7.384  0.00  0.00    +0.000 OA
ENDROOT
TORSDOF 0
REMARK  Name = ../refined-set-2016/3ekt/3ekt_pocket.pdb
REMARK  227 active torsions:
REMARK  status: ('A' for Active; 'I' for Inactive)
REMARK    1  A    between atoms: _1  and  _3
REMARK    2  A    between atoms: _3  and  _4
REMARK    3  A    between atoms: _3  and  _6
REMARK    4  A    between atoms: _6  and  _7
REMARK    5  A    between atoms: _7  and  _8
REMARK    6  A    between atoms: _8  and  _9
REMARK    7  A    between atoms: _18  and  _20
REMARK    8  A    between atoms: _20  and  _21
REMARK    9  A    between atoms: _20  and  _23
REMARK   10  A    between atoms: _23  and  _24
REMARK   11  A    between atoms: _27  and  _29
REMARK   12  A    between atoms: _29  and  _30
REMARK   13  A    between atoms: _29  and  _32
REMARK   14  A    between atoms: _32  and  _33
REMARK   15  A    between atoms: _36  and  _38
REMARK   16  A    between atoms: _38  and  _39
REMARK   17  A    between atoms: _38  and  _41
REMARK   18  A    between atoms: _41  and  _42
REMARK   19  A    between atoms: _45  and  _47
REMARK   20  A    between atoms: _47  and  _48
REMARK   21  A    between atoms: _47  and  _50
REMARK   22  A    between atoms: _50  and  _51
REMARK   23  A    between atoms: _54  and  _56
REMARK   24  A    between atoms: _56  and  _57
REMARK   25  A    between atoms: _59  and  _61
REMARK   26  A    between atoms: _61  and  _62
REMARK   27  A    between atoms: _65  and  _67
REMARK   28  A    between atoms: _67  and  _68
REMARK   29  A    between atoms: _67  and  _70
REMARK   30  A    between atoms: _70  and  _71
REMARK   31  A    between atoms: _74  and  _76
REMARK   32  A    between atoms: _76  and  _77
REMARK   33  A    between atoms: _76  and  _79
REMARK   34  A    between atoms: _79  and  _80
REMARK   35  A    between atoms: _83  and  _85
REMARK   36  A    between atoms: _85  and  _86
REMARK   37  A    between atoms: _85  and  _88
REMARK   38  A    between atoms: _88  and  _89
REMARK   39  A    between atoms: _92  and  _94
REMARK   40  A    between atoms: _94  and  _95
REMARK   41  A    between atoms: _94  and  _97
REMARK   42  A    between atoms: _100  and  _102
REMARK   43  A    between atoms: _102  and  _103
REMARK   44  A    between atoms: _102  and  _105
REMARK   45  A    between atoms: _105  and  _106
REMARK   46  A    between atoms: _106  and  _107
REMARK   47  A    between atoms: _107  and  _108
REMARK   48  A    between atoms: _108  and  _109
REMARK   49  A    between atoms: _113  and  _115
REMARK   50  A    between atoms: _115  and  _116
REMARK   51  A    between atoms: _115  and  _118
REMARK   52  A    between atoms: _118  and  _119
REMARK   53  A    between atoms: _119  and  _120
REMARK   54  A    between atoms: _122  and  _124
REMARK   55  A    between atoms: _124  and  _125
REMARK   56  A    between atoms: _124  and  _127
REMARK   57  A    between atoms: _127  and  _128
REMARK   58  A    between atoms: _131  and  _133
REMARK   59  A    between atoms: _133  and  _134
REMARK   60  A    between atoms: _133  and  _136
REMARK   61  A    between atoms: _139  and  _141
REMARK   62  A    between atoms: _141  and  _142
REMARK   63  A    between atoms: _144  and  _146
REMARK   64  A    between atoms: _146  and  _147
REMARK   65  A    between atoms: _146  and  _149
REMARK   66  A    between atoms: _149  and  _150
REMARK   67  A    between atoms: _153  and  _155
REMARK   68  A    between atoms: _155  and  _156
REMARK   69  A    between atoms: _158  and  _160
REMARK   70  A    between atoms: _160  and  _161
REMARK   71  A    between atoms: _163  and  _165
REMARK   72  A    between atoms: _165  and  _166
REMARK   73  A    between atoms: _165  and  _168
REMARK   74  A    between atoms: _171  and  _173
REMARK   75  A    between atoms: _173  and  _174
REMARK   76  A    between atoms: _173  and  _176
REMARK   77  A    between atoms: _179  and  _181
REMARK   78  A    between atoms: _181  and  _182
REMARK   79  A    between atoms: _181  and  _184
REMARK   80  A    between atoms: _184  and  _185
REMARK   81  A    between atoms: _188  and  _190
REMARK   82  A    between atoms: _190  and  _191
REMARK   83  A    between atoms: _190  and  _193
REMARK   84  A    between atoms: _193  and  _194
REMARK   85  A    between atoms: _198  and  _199
REMARK   86  A    between atoms: _204  and  _206
REMARK   87  A    between atoms: _206  and  _207
REMARK   88  A    between atoms: _210  and  _212
REMARK   89  A    between atoms: _212  and  _213
REMARK   90  A    between atoms: _212  and  _215
REMARK   91  A    between atoms: _215  and  _216
REMARK   92  A    between atoms: _221  and  _223
REMARK   93  A    between atoms: _223  and  _224
REMARK   94  A    between atoms: _223  and  _226
REMARK   95  A    between atoms: _226  and  _227
REMARK   96  A    between atoms: _230  and  _232
REMARK   97  A    between atoms: _232  and  _233
REMARK   98  A    between atoms: _232  and  _235
REMARK   99  A    between atoms: _235  and  _236
REMARK  100  A    between atoms: _239  and  _241
REMARK  101  A    between atoms: _241  and  _242
REMARK  102  A    between atoms: _244  and  _246
REMARK  103  A    between atoms: _246  and  _247
REMARK  104  A    between atoms: _246  and  _249
REMARK  105  A    between atoms: _249  and  _250
REMARK  106  A    between atoms: _250  and  _251
REMARK  107  A    between atoms: _251  and  _252
REMARK  108  A    between atoms: _261  and  _263
REMARK  109  A    between atoms: _263  and  _264
REMARK  110  A    between atoms: _263  and  _266
REMARK  111  A    between atoms: _266  and  _267
REMARK  112  A    between atoms: _272  and  _274
REMARK  113  A    between atoms: _274  and  _275
REMARK  114  A    between atoms: _274  and  _277
REMARK  115  A    between atoms: _277  and  _278
REMARK  116  A    between atoms: _278  and  _279
REMARK  117  A    between atoms: _279  and  _280
REMARK  118  A    between atoms: _289  and  _291
REMARK  119  A    between atoms: _291  and  _292
REMARK  120  A    between atoms: _291  and  _294
REMARK  121  A    between atoms: _294  and  _295
REMARK  122  A    between atoms: _298  and  _300
REMARK  123  A    between atoms: _300  and  _301
REMARK  124  A    between atoms: _300  and  _303
REMARK  125  A    between atoms: _303  and  _304
REMARK  126  A    between atoms: _307  and  _309
REMARK  127  A    between atoms: _309  and  _310
REMARK  128  A    between atoms: _309  and  _312
REMARK  129  A    between atoms: _312  and  _313
REMARK  130  A    between atoms: _316  and  _318
REMARK  131  A    between atoms: _318  and  _319
REMARK  132  A    between atoms: _318  and  _321
REMARK  133  A    between atoms: _321  and  _322
REMARK  134  A    between atoms: _325  and  _327
REMARK  135  A    between atoms: _327  and  _328
REMARK  136  A    between atoms: _330  and  _332
REMARK  137  A    between atoms: _332  and  _333
REMARK  138  A    between atoms: _336  and  _338
REMARK  139  A    between atoms: _338  and  _339
REMARK  140  A    between atoms: _338  and  _341
REMARK  141  A    between atoms: _341  and  _342
REMARK  142  A    between atoms: _345  and  _347
REMARK  143  A    between atoms: _347  and  _348
REMARK  144  A    between atoms: _347  and  _350
REMARK  145  A    between atoms: _350  and  _351
REMARK  146  A    between atoms: _354  and  _356
REMARK  147  A    between atoms: _356  and  _357
REMARK  148  A    between atoms: _356  and  _359
REMARK  149  A    between atoms: _359  and  _360
REMARK  150  A    between atoms: _363  and  _365
REMARK  151  A    between atoms: _365  and  _366
REMARK  152  A    between atoms: _365  and  _368
REMARK  153  A    between atoms: _371  and  _373
REMARK  154  A    between atoms: _373  and  _374
REMARK  155  A    between atoms: _373  and  _376
REMARK  156  A    between atoms: _376  and  _377
REMARK  157  A    between atoms: _380  and  _382
REMARK  158  A    between atoms: _382  and  _383
REMARK  159  A    between atoms: _382  and  _385
REMARK  160  A    between atoms: _385  and  _386
REMARK  161  A    between atoms: _386  and  _387
REMARK  162  A    between atoms: _387  and  _388
REMARK  163  A    between atoms: _388  and  _389
REMARK  164  A    between atoms: _393  and  _395
REMARK  165  A    between atoms: _395  and  _396
REMARK  166  A    between atoms: _395  and  _398
REMARK  167  A    between atoms: _398  and  _399
REMARK  168  A    between atoms: _399  and  _400
REMARK  169  A    between atoms: _402  and  _404
REMARK  170  A    between atoms: _404  and  _405
REMARK  171  A    between atoms: _404  and  _407
REMARK  172  A    between atoms: _407  and  _408
REMARK  173  A    between atoms: _411  and  _413
REMARK  174  A    between atoms: _413  and  _414
REMARK  175  A    between atoms: _413  and  _416
REMARK  176  A    between atoms: _419  and  _421
REMARK  177  A    between atoms: _421  and  _422
REMARK  178  A    between atoms: _424  and  _426
REMARK  179  A    between atoms: _426  and  _427
REMARK  180  A    between atoms: _426  and  _429
REMARK  181  A    between atoms: _429  and  _430
REMARK  182  A    between atoms: _433  and  _435
REMARK  183  A    between atoms: _435  and  _436
REMARK  184  A    between atoms: _438  and  _440
REMARK  185  A    between atoms: _440  and  _441
REMARK  186  A    between atoms: _443  and  _445
REMARK  187  A    between atoms: _445  and  _446
REMARK  188  A    between atoms: _445  and  _448
REMARK  189  A    between atoms: _451  and  _453
REMARK  190  A    between atoms: _453  and  _454
REMARK  191  A    between atoms: _453  and  _456
REMARK  192  A    between atoms: _459  and  _461
REMARK  193  A    between atoms: _461  and  _462
REMARK  194  A    between atoms: _461  and  _464
REMARK  195  A    between atoms: _464  and  _465
REMARK  196  A    between atoms: _469  and  _470
REMARK  197  A    between atoms: _475  and  _477
REMARK  198  A    between atoms: _477  and  _478
REMARK  199  A    between atoms: _477  and  _480
REMARK  200  A    between atoms: _480  and  _481
REMARK  201  A    between atoms: _485  and  _486
REMARK  202  A    between atoms: _491  and  _493
REMARK  203  A    between atoms: _493  and  _494
REMARK  204  A    between atoms: _497  and  _499
REMARK  205  A    between atoms: _499  and  _500
REMARK  206  A    between atoms: _499  and  _502
REMARK  207  A    between atoms: _502  and  _503
REMARK  208  A    between atoms: _508  and  _510
REMARK  209  A    between atoms: _510  and  _511
REMARK  210  A    between atoms: _510  and  _513
REMARK  211  A    between atoms: _513  and  _514
REMARK  212  A    between atoms: _517  and  _519
REMARK  213  A    between atoms: _519  and  _520
REMARK  214  A    between atoms: _519  and  _522
REMARK  215  A    between atoms: _522  and  _523
REMARK  216  A    between atoms: _526  and  _528
REMARK  217  A    between atoms: _528  and  _529
REMARK  218  A    between atoms: _531  and  _533
REMARK  219  A    between atoms: _533  and  _534
REMARK  220  A    between atoms: _533  and  _536
REMARK  221  A    between atoms: _536  and  _537
REMARK  222  A    between atoms: _537  and  _538
REMARK  223  A    between atoms: _538  and  _539
REMARK  224  A    between atoms: _548  and  _550
REMARK  225  A    between atoms: _550  and  _551
REMARK  226  A    between atoms: _550  and  _553
REMARK  227  A    between atoms: _553  and  _554
REMARK                            x       y       z     vdW  Elec       q    Type
REMARK                         _______ _______ _______ _____ _____    ______ ____
ROOT
ATOM      1  O   HOH     1      23.111  46.561  -6.344  0.00  0.00    +0.000 OA
ENDROOT
TORSDOF 0
REMARK  Name = ../refined-set-2016/3ekt/3ekt_pocket.pdb
REMARK  227 active torsions:
REMARK  status: ('A' for Active; 'I' for Inactive)
REMARK    1  A    between atoms: _1  and  _3
REMARK    2  A    between atoms: _3  and  _4
REMARK    3  A    between atoms: _3  and  _6
REMARK    4  A    between atoms: _6  and  _7
REMARK    5  A    between atoms: _7  and  _8
REMARK    6  A    between atoms: _8  and  _9
REMARK    7  A    between atoms: _18  and  _20
REMARK    8  A    between atoms: _20  and  _21
REMARK    9  A    between atoms: _20  and  _23
REMARK   10  A    between atoms: _23  and  _24
REMARK   11  A    between atoms: _27  and  _29
REMARK   12  A    between atoms: _29  and  _30
REMARK   13  A    between atoms: _29  and  _32
REMARK   14  A    between atoms: _32  and  _33
REMARK   15  A    between atoms: _36  and  _38
REMARK   16  A    between atoms: _38  and  _39
REMARK   17  A    between atoms: _38  and  _41
REMARK   18  A    between atoms: _41  and  _42
REMARK   19  A    between atoms: _45  and  _47
REMARK   20  A    between atoms: _47  and  _48
REMARK   21  A    between atoms: _47  and  _50
REMARK   22  A    between atoms: _50  and  _51
REMARK   23  A    between atoms: _54  and  _56
REMARK   24  A    between atoms: _56  and  _57
REMARK   25  A    between atoms: _59  and  _61
REMARK   26  A    between atoms: _61  and  _62
REMARK   27  A    between atoms: _65  and  _67
REMARK   28  A    between atoms: _67  and  _68
REMARK   29  A    between atoms: _67  and  _70
REMARK   30  A    between atoms: _70  and  _71
REMARK   31  A    between atoms: _74  and  _76
REMARK   32  A    between atoms: _76  and  _77
REMARK   33  A    between atoms: _76  and  _79
REMARK   34  A    between atoms: _79  and  _80
REMARK   35  A    between atoms: _83  and  _85
REMARK   36  A    between atoms: _85  and  _86
REMARK   37  A    between atoms: _85  and  _88
REMARK   38  A    between atoms: _88  and  _89
REMARK   39  A    between atoms: _92  and  _94
REMARK   40  A    between atoms: _94  and  _95
REMARK   41  A    between atoms: _94  and  _97
REMARK   42  A    between atoms: _100  and  _102
REMARK   43  A    between atoms: _102  and  _103
REMARK   44  A    between atoms: _102  and  _105
REMARK   45  A    between atoms: _105  and  _106
REMARK   46  A    between atoms: _106  and  _107
REMARK   47  A    between atoms: _107  and  _108
REMARK   48  A    between atoms: _108  and  _109
REMARK   49  A    between atoms: _113  and  _115
REMARK   50  A    between atoms: _115  and  _116
REMARK   51  A    between atoms: _115  and  _118
REMARK   52  A    between atoms: _118  and  _119
REMARK   53  A    between atoms: _119  and  _120
REMARK   54  A    between atoms: _122  and  _124
REMARK   55  A    between atoms: _124  and  _125
REMARK   56  A    between atoms: _124  and  _127
REMARK   57  A    between atoms: _127  and  _128
REMARK   58  A    between atoms: _131  and  _133
REMARK   59  A    between atoms: _133  and  _134
REMARK   60  A    between atoms: _133  and  _136
REMARK   61  A    between atoms: _139  and  _141
REMARK   62  A    between atoms: _141  and  _142
REMARK   63  A    between atoms: _144  and  _146
REMARK   64  A    between atoms: _146  and  _147
REMARK   65  A    between atoms: _146  and  _149
REMARK   66  A    between atoms: _149  and  _150
REMARK   67  A    between atoms: _153  and  _155
REMARK   68  A    between atoms: _155  and  _156
REMARK   69  A    between atoms: _158  and  _160
REMARK   70  A    between atoms: _160  and  _161
REMARK   71  A    between atoms: _163  and  _165
REMARK   72  A    between atoms: _165  and  _166
REMARK   73  A    between atoms: _165  and  _168
REMARK   74  A    between atoms: _171  and  _173
REMARK   75  A    between atoms: _173  and  _174
REMARK   76  A    between atoms: _173  and  _176
REMARK   77  A    between atoms: _179  and  _181
REMARK   78  A    between atoms: _181  and  _182
REMARK   79  A    between atoms: _181  and  _184
REMARK   80  A    between atoms: _184  and  _185
REMARK   81  A    between atoms: _188  and  _190
REMARK   82  A    between atoms: _190  and  _191
REMARK   83  A    between atoms: _190  and  _193
REMARK   84  A    between atoms: _193  and  _194
REMARK   85  A    between atoms: _198  and  _199
REMARK   86  A    between atoms: _204  and  _206
REMARK   87  A    between atoms: _206  and  _207
REMARK   88  A    between atoms: _210  and  _212
REMARK   89  A    between atoms: _212  and  _213
REMARK   90  A    between atoms: _212  and  _215
REMARK   91  A    between atoms: _215  and  _216
REMARK   92  A    between atoms: _221  and  _223
REMARK   93  A    between atoms: _223  and  _224
REMARK   94  A    between atoms: _223  and  _226
REMARK   95  A    between atoms: _226  and  _227
REMARK   96  A    between atoms: _230  and  _232
REMARK   97  A    between atoms: _232  and  _233
REMARK   98  A    between atoms: _232  and  _235
REMARK   99  A    between atoms: _235  and  _236
REMARK  100  A    between atoms: _239  and  _241
REMARK  101  A    between atoms: _241  and  _242
REMARK  102  A    between atoms: _244  and  _246
REMARK  103  A    between atoms: _246  and  _247
REMARK  104  A    between atoms: _246  and  _249
REMARK  105  A    between atoms: _249  and  _250
REMARK  106  A    between atoms: _250  and  _251
REMARK  107  A    between atoms: _251  and  _252
REMARK  108  A    between atoms: _261  and  _263
REMARK  109  A    between atoms: _263  and  _264
REMARK  110  A    between atoms: _263  and  _266
REMARK  111  A    between atoms: _266  and  _267
REMARK  112  A    between atoms: _272  and  _274
REMARK  113  A    between atoms: _274  and  _275
REMARK  114  A    between atoms: _274  and  _277
REMARK  115  A    between atoms: _277  and  _278
REMARK  116  A    between atoms: _278  and  _279
REMARK  117  A    between atoms: _279  and  _280
REMARK  118  A    between atoms: _289  and  _291
REMARK  119  A    between atoms: _291  and  _292
REMARK  120  A    between atoms: _291  and  _294
REMARK  121  A    between atoms: _294  and  _295
REMARK  122  A    between atoms: _298  and  _300
REMARK  123  A    between atoms: _300  and  _301
REMARK  124  A    between atoms: _300  and  _303
REMARK  125  A    between atoms: _303  and  _304
REMARK  126  A    between atoms: _307  and  _309
REMARK  127  A    between atoms: _309  and  _310
REMARK  128  A    between atoms: _309  and  _312
REMARK  129  A    between atoms: _312  and  _313
REMARK  130  A    between atoms: _316  and  _318
REMARK  131  A    between atoms: _318  and  _319
REMARK  132  A    between atoms: _318  and  _321
REMARK  133  A    between atoms: _321  and  _322
REMARK  134  A    between atoms: _325  and  _327
REMARK  135  A    between atoms: _327  and  _328
REMARK  136  A    between atoms: _330  and  _332
REMARK  137  A    between atoms: _332  and  _333
REMARK  138  A    between atoms: _336  and  _338
REMARK  139  A    between atoms: _338  and  _339
REMARK  140  A    between atoms: _338  and  _341
REMARK  141  A    between atoms: _341  and  _342
REMARK  142  A    between atoms: _345  and  _347
REMARK  143  A    between atoms: _347  and  _348
REMARK  144  A    between atoms: _347  and  _350
REMARK  145  A    between atoms: _350  and  _351
REMARK  146  A    between atoms: _354  and  _356
REMARK  147  A    between atoms: _356  and  _357
REMARK  148  A    between atoms: _356  and  _359
REMARK  149  A    between atoms: _359  and  _360
REMARK  150  A    between atoms: _363  and  _365
REMARK  151  A    between atoms: _365  and  _366
REMARK  152  A    between atoms: _365  and  _368
REMARK  153  A    between atoms: _371  and  _373
REMARK  154  A    between atoms: _373  and  _374
REMARK  155  A    between atoms: _373  and  _376
REMARK  156  A    between atoms: _376  and  _377
REMARK  157  A    between atoms: _380  and  _382
REMARK  158  A    between atoms: _382  and  _383
REMARK  159  A    between atoms: _382  and  _385
REMARK  160  A    between atoms: _385  and  _386
REMARK  161  A    between atoms: _386  and  _387
REMARK  162  A    between atoms: _387  and  _388
REMARK  163  A    between atoms: _388  and  _389
REMARK  164  A    between atoms: _393  and  _395
REMARK  165  A    between atoms: _395  and  _396
REMARK  166  A    between atoms: _395  and  _398
REMARK  167  A    between atoms: _398  and  _399
REMARK  168  A    between atoms: _399  and  _400
REMARK  169  A    between atoms: _402  and  _404
REMARK  170  A    between atoms: _404  and  _405
REMARK  171  A    between atoms: _404  and  _407
REMARK  172  A    between atoms: _407  and  _408
REMARK  173  A    between atoms: _411  and  _413
REMARK  174  A    between atoms: _413  and  _414
REMARK  175  A    between atoms: _413  and  _416
REMARK  176  A    between atoms: _419  and  _421
REMARK  177  A    between atoms: _421  and  _422
REMARK  178  A    between atoms: _424  and  _426
REMARK  179  A    between atoms: _426  and  _427
REMARK  180  A    between atoms: _426  and  _429
REMARK  181  A    between atoms: _429  and  _430
REMARK  182  A    between atoms: _433  and  _435
REMARK  183  A    between atoms: _435  and  _436
REMARK  184  A    between atoms: _438  and  _440
REMARK  185  A    between atoms: _440  and  _441
REMARK  186  A    between atoms: _443  and  _445
REMARK  187  A    between atoms: _445  and  _446
REMARK  188  A    between atoms: _445  and  _448
REMARK  189  A    between atoms: _451  and  _453
REMARK  190  A    between atoms: _453  and  _454
REMARK  191  A    between atoms: _453  and  _456
REMARK  192  A    between atoms: _459  and  _461
REMARK  193  A    between atoms: _461  and  _462
REMARK  194  A    between atoms: _461  and  _464
REMARK  195  A    between atoms: _464  and  _465
REMARK  196  A    between atoms: _469  and  _470
REMARK  197  A    between atoms: _475  and  _477
REMARK  198  A    between atoms: _477  and  _478
REMARK  199  A    between atoms: _477  and  _480
REMARK  200  A    between atoms: _480  and  _481
REMARK  201  A    between atoms: _485  and  _486
REMARK  202  A    between atoms: _491  and  _493
REMARK  203  A    between atoms: _493  and  _494
REMARK  204  A    between atoms: _497  and  _499
REMARK  205  A    between atoms: _499  and  _500
REMARK  206  A    between atoms: _499  and  _502
REMARK  207  A    between atoms: _502  and  _503
REMARK  208  A    between atoms: _508  and  _510
REMARK  209  A    between atoms: _510  and  _511
REMARK  210  A    between atoms: _510  and  _513
REMARK  211  A    between atoms: _513  and  _514
REMARK  212  A    between atoms: _517  and  _519
REMARK  213  A    between atoms: _519  and  _520
REMARK  214  A    between atoms: _519  and  _522
REMARK  215  A    between atoms: _522  and  _523
REMARK  216  A    between atoms: _526  and  _528
REMARK  217  A    between atoms: _528  and  _529
REMARK  218  A    between atoms: _531  and  _533
REMARK  219  A    between atoms: _533  and  _534
REMARK  220  A    between atoms: _533  and  _536
REMARK  221  A    between atoms: _536  and  _537
REMARK  222  A    between atoms: _537  and  _538
REMARK  223  A    between atoms: _538  and  _539
REMARK  224  A    between atoms: _548  and  _550
REMARK  225  A    between atoms: _550  and  _551
REMARK  226  A    between atoms: _550  and  _553
REMARK  227  A    between atoms: _553  and  _554
REMARK                            x       y       z     vdW  Elec       q    Type
REMARK                         _______ _______ _______ _____ _____    ______ ____
ROOT
ATOM      1  O   HOH     1      12.803  36.890 -18.234  0.00  0.00    +0.000 OA
ENDROOT
TORSDOF 0
REMARK  Name = ../refined-set-2016/3ekt/3ekt_pocket.pdb
REMARK  227 active torsions:
REMARK  status: ('A' for Active; 'I' for Inactive)
REMARK    1  A    between atoms: _1  and  _3
REMARK    2  A    between atoms: _3  and  _4
REMARK    3  A    between atoms: _3  and  _6
REMARK    4  A    between atoms: _6  and  _7
REMARK    5  A    between atoms: _7  and  _8
REMARK    6  A    between atoms: _8  and  _9
REMARK    7  A    between atoms: _18  and  _20
REMARK    8  A    between atoms: _20  and  _21
REMARK    9  A    between atoms: _20  and  _23
REMARK   10  A    between atoms: _23  and  _24
REMARK   11  A    between atoms: _27  and  _29
REMARK   12  A    between atoms: _29  and  _30
REMARK   13  A    between atoms: _29  and  _32
REMARK   14  A    between atoms: _32  and  _33
REMARK   15  A    between atoms: _36  and  _38
REMARK   16  A    between atoms: _38  and  _39
REMARK   17  A    between atoms: _38  and  _41
REMARK   18  A    between atoms: _41  and  _42
REMARK   19  A    between atoms: _45  and  _47
REMARK   20  A    between atoms: _47  and  _48
REMARK   21  A    between atoms: _47  and  _50
REMARK   22  A    between atoms: _50  and  _51
REMARK   23  A    between atoms: _54  and  _56
REMARK   24  A    between atoms: _56  and  _57
REMARK   25  A    between atoms: _59  and  _61
REMARK   26  A    between atoms: _61  and  _62
REMARK   27  A    between atoms: _65  and  _67
REMARK   28  A    between atoms: _67  and  _68
REMARK   29  A    between atoms: _67  and  _70
REMARK   30  A    between atoms: _70  and  _71
REMARK   31  A    between atoms: _74  and  _76
REMARK   32  A    between atoms: _76  and  _77
REMARK   33  A    between atoms: _76  and  _79
REMARK   34  A    between atoms: _79  and  _80
REMARK   35  A    between atoms: _83  and  _85
REMARK   36  A    between atoms: _85  and  _86
REMARK   37  A    between atoms: _85  and  _88
REMARK   38  A    between atoms: _88  and  _89
REMARK   39  A    between atoms: _92  and  _94
REMARK   40  A    between atoms: _94  and  _95
REMARK   41  A    between atoms: _94  and  _97
REMARK   42  A    between atoms: _100  and  _102
REMARK   43  A    between atoms: _102  and  _103
REMARK   44  A    between atoms: _102  and  _105
REMARK   45  A    between atoms: _105  and  _106
REMARK   46  A    between atoms: _106  and  _107
REMARK   47  A    between atoms: _107  and  _108
REMARK   48  A    between atoms: _108  and  _109
REMARK   49  A    between atoms: _113  and  _115
REMARK   50  A    between atoms: _115  and  _116
REMARK   51  A    between atoms: _115  and  _118
REMARK   52  A    between atoms: _118  and  _119
REMARK   53  A    between atoms: _119  and  _120
REMARK   54  A    between atoms: _122  and  _124
REMARK   55  A    between atoms: _124  and  _125
REMARK   56  A    between atoms: _124  and  _127
REMARK   57  A    between atoms: _127  and  _128
REMARK   58  A    between atoms: _131  and  _133
REMARK   59  A    between atoms: _133  and  _134
REMARK   60  A    between atoms: _133  and  _136
REMARK   61  A    between atoms: _139  and  _141
REMARK   62  A    between atoms: _141  and  _142
REMARK   63  A    between atoms: _144  and  _146
REMARK   64  A    between atoms: _146  and  _147
REMARK   65  A    between atoms: _146  and  _149
REMARK   66  A    between atoms: _149  and  _150
REMARK   67  A    between atoms: _153  and  _155
REMARK   68  A    between atoms: _155  and  _156
REMARK   69  A    between atoms: _158  and  _160
REMARK   70  A    between atoms: _160  and  _161
REMARK   71  A    between atoms: _163  and  _165
REMARK   72  A    between atoms: _165  and  _166
REMARK   73  A    between atoms: _165  and  _168
REMARK   74  A    between atoms: _171  and  _173
REMARK   75  A    between atoms: _173  and  _174
REMARK   76  A    between atoms: _173  and  _176
REMARK   77  A    between atoms: _179  and  _181
REMARK   78  A    between atoms: _181  and  _182
REMARK   79  A    between atoms: _181  and  _184
REMARK   80  A    between atoms: _184  and  _185
REMARK   81  A    between atoms: _188  and  _190
REMARK   82  A    between atoms: _190  and  _191
REMARK   83  A    between atoms: _190  and  _193
REMARK   84  A    between atoms: _193  and  _194
REMARK   85  A    between atoms: _198  and  _199
REMARK   86  A    between atoms: _204  and  _206
REMARK   87  A    between atoms: _206  and  _207
REMARK   88  A    between atoms: _210  and  _212
REMARK   89  A    between atoms: _212  and  _213
REMARK   90  A    between atoms: _212  and  _215
REMARK   91  A    between atoms: _215  and  _216
REMARK   92  A    between atoms: _221  and  _223
REMARK   93  A    between atoms: _223  and  _224
REMARK   94  A    between atoms: _223  and  _226
REMARK   95  A    between atoms: _226  and  _227
REMARK   96  A    between atoms: _230  and  _232
REMARK   97  A    between atoms: _232  and  _233
REMARK   98  A    between atoms: _232  and  _235
REMARK   99  A    between atoms: _235  and  _236
REMARK  100  A    between atoms: _239  and  _241
REMARK  101  A    between atoms: _241  and  _242
REMARK  102  A    between atoms: _244  and  _246
REMARK  103  A    between atoms: _246  and  _247
REMARK  104  A    between atoms: _246  and  _249
REMARK  105  A    between atoms: _249  and  _250
REMARK  106  A    between atoms: _250  and  _251
REMARK  107  A    between atoms: _251  and  _252
REMARK  108  A    between atoms: _261  and  _263
REMARK  109  A    between atoms: _263  and  _264
REMARK  110  A    between atoms: _263  and  _266
REMARK  111  A    between atoms: _266  and  _267
REMARK  112  A    between atoms: _272  and  _274
REMARK  113  A    between atoms: _274  and  _275
REMARK  114  A    between atoms: _274  and  _277
REMARK  115  A    between atoms: _277  and  _278
REMARK  116  A    between atoms: _278  and  _279
REMARK  117  A    between atoms: _279  and  _280
REMARK  118  A    between atoms: _289  and  _291
REMARK  119  A    between atoms: _291  and  _292
REMARK  120  A    between atoms: _291  and  _294
REMARK  121  A    between atoms: _294  and  _295
REMARK  122  A    between atoms: _298  and  _300
REMARK  123  A    between atoms: _300  and  _301
REMARK  124  A    between atoms: _300  and  _303
REMARK  125  A    between atoms: _303  and  _304
REMARK  126  A    between atoms: _307  and  _309
REMARK  127  A    between atoms: _309  and  _310
REMARK  128  A    between atoms: _309  and  _312
REMARK  129  A    between atoms: _312  and  _313
REMARK  130  A    between atoms: _316  and  _318
REMARK  131  A    between atoms: _318  and  _319
REMARK  132  A    between atoms: _318  and  _321
REMARK  133  A    between atoms: _321  and  _322
REMARK  134  A    between atoms: _325  and  _327
REMARK  135  A    between atoms: _327  and  _328
REMARK  136  A    between atoms: _330  and  _332
REMARK  137  A    between atoms: _332  and  _333
REMARK  138  A    between atoms: _336  and  _338
REMARK  139  A    between atoms: _338  and  _339
REMARK  140  A    between atoms: _338  and  _341
REMARK  141  A    between atoms: _341  and  _342
REMARK  142  A    between atoms: _345  and  _347
REMARK  143  A    between atoms: _347  and  _348
REMARK  144  A    between atoms: _347  and  _350
REMARK  145  A    between atoms: _350  and  _351
REMARK  146  A    between atoms: _354  and  _356
REMARK  147  A    between atoms: _356  and  _357
REMARK  148  A    between atoms: _356  and  _359
REMARK  149  A    between atoms: _359  and  _360
REMARK  150  A    between atoms: _363  and  _365
REMARK  151  A    between atoms: _365  and  _366
REMARK  152  A    between atoms: _365  and  _368
REMARK  153  A    between atoms: _371  and  _373
REMARK  154  A    between atoms: _373  and  _374
REMARK  155  A    between atoms: _373  and  _376
REMARK  156  A    between atoms: _376  and  _377
REMARK  157  A    between atoms: _380  and  _382
REMARK  158  A    between atoms: _382  and  _383
REMARK  159  A    between atoms: _382  and  _385
REMARK  160  A    between atoms: _385  and  _386
REMARK  161  A    between atoms: _386  and  _387
REMARK  162  A    between atoms: _387  and  _388
REMARK  163  A    between atoms: _388  and  _389
REMARK  164  A    between atoms: _393  and  _395
REMARK  165  A    between atoms: _395  and  _396
REMARK  166  A    between atoms: _395  and  _398
REMARK  167  A    between atoms: _398  and  _399
REMARK  168  A    between atoms: _399  and  _400
REMARK  169  A    between atoms: _402  and  _404
REMARK  170  A    between atoms: _404  and  _405
REMARK  171  A    between atoms: _404  and  _407
REMARK  172  A    between atoms: _407  and  _408
REMARK  173  A    between atoms: _411  and  _413
REMARK  174  A    between atoms: _413  and  _414
REMARK  175  A    between atoms: _413  and  _416
REMARK  176  A    between atoms: _419  and  _421
REMARK  177  A    between atoms: _421  and  _422
REMARK  178  A    between atoms: _424  and  _426
REMARK  179  A    between atoms: _426  and  _427
REMARK  180  A    between atoms: _426  and  _429
REMARK  181  A    between atoms: _429  and  _430
REMARK  182  A    between atoms: _433  and  _435
REMARK  183  A    between atoms: _435  and  _436
REMARK  184  A    between atoms: _438  and  _440
REMARK  185  A    between atoms: _440  and  _441
REMARK  186  A    between atoms: _443  and  _445
REMARK  187  A    between atoms: _445  and  _446
REMARK  188  A    between atoms: _445  and  _448
REMARK  189  A    between atoms: _451  and  _453
REMARK  190  A    between atoms: _453  and  _454
REMARK  191  A    between atoms: _453  and  _456
REMARK  192  A    between atoms: _459  and  _461
REMARK  193  A    between atoms: _461  and  _462
REMARK  194  A    between atoms: _461  and  _464
REMARK  195  A    between atoms: _464  and  _465
REMARK  196  A    between atoms: _469  and  _470
REMARK  197  A    between atoms: _475  and  _477
REMARK  198  A    between atoms: _477  and  _478
REMARK  199  A    between atoms: _477  and  _480
REMARK  200  A    between atoms: _480  and  _481
REMARK  201  A    between atoms: _485  and  _486
REMARK  202  A    between atoms: _491  and  _493
REMARK  203  A    between atoms: _493  and  _494
REMARK  204  A    between atoms: _497  and  _499
REMARK  205  A    between atoms: _499  and  _500
REMARK  206  A    between atoms: _499  and  _502
REMARK  207  A    between atoms: _502  and  _503
REMARK  208  A    between atoms: _508  and  _510
REMARK  209  A    between atoms: _510  and  _511
REMARK  210  A    between atoms: _510  and  _513
REMARK  211  A    between atoms: _513  and  _514
REMARK  212  A    between atoms: _517  and  _519
REMARK  213  A    between atoms: _519  and  _520
REMARK  214  A    between atoms: _519  and  _522
REMARK  215  A    between atoms: _522  and  _523
REMARK  216  A    between atoms: _526  and  _528
REMARK  217  A    between atoms: _528  and  _529
REMARK  218  A    between atoms: _531  and  _533
REMARK  219  A    between atoms: _533  and  _534
REMARK  220  A    between atoms: _533  and  _536
REMARK  221  A    between atoms: _536  and  _537
REMARK  222  A    between atoms: _537  and  _538
REMARK  223  A    between atoms: _538  and  _539
REMARK  224  A    between atoms: _548  and  _550
REMARK  225  A    between atoms: _550  and  _551
REMARK  226  A    between atoms: _550  and  _553
REMARK  227  A    between atoms: _553  and  _554
REMARK                            x       y       z     vdW  Elec       q    Type
REMARK                         _______ _______ _______ _____ _____    ______ ____
ROOT
ATOM      1  O   HOH     1      21.560  40.096  -8.511  0.00  0.00    +0.000 OA
ENDROOT
TORSDOF 0
REMARK  Name = ../refined-set-2016/3ekt/3ekt_pocket.pdb
REMARK  227 active torsions:
REMARK  status: ('A' for Active; 'I' for Inactive)
REMARK    1  A    between atoms: _1  and  _3
REMARK    2  A    between atoms: _3  and  _4
REMARK    3  A    between atoms: _3  and  _6
REMARK    4  A    between atoms: _6  and  _7
REMARK    5  A    between atoms: _7  and  _8
REMARK    6  A    between atoms: _8  and  _9
REMARK    7  A    between atoms: _18  and  _20
REMARK    8  A    between atoms: _20  and  _21
REMARK    9  A    between atoms: _20  and  _23
REMARK   10  A    between atoms: _23  and  _24
REMARK   11  A    between atoms: _27  and  _29
REMARK   12  A    between atoms: _29  and  _30
REMARK   13  A    between atoms: _29  and  _32
REMARK   14  A    between atoms: _32  and  _33
REMARK   15  A    between atoms: _36  and  _38
REMARK   16  A    between atoms: _38  and  _39
REMARK   17  A    between atoms: _38  and  _41
REMARK   18  A    between atoms: _41  and  _42
REMARK   19  A    between atoms: _45  and  _47
REMARK   20  A    between atoms: _47  and  _48
REMARK   21  A    between atoms: _47  and  _50
REMARK   22  A    between atoms: _50  and  _51
REMARK   23  A    between atoms: _54  and  _56
REMARK   24  A    between atoms: _56  and  _57
REMARK   25  A    between atoms: _59  and  _61
REMARK   26  A    between atoms: _61  and  _62
REMARK   27  A    between atoms: _65  and  _67
REMARK   28  A    between atoms: _67  and  _68
REMARK   29  A    between atoms: _67  and  _70
REMARK   30  A    between atoms: _70  and  _71
REMARK   31  A    between atoms: _74  and  _76
REMARK   32  A    between atoms: _76  and  _77
REMARK   33  A    between atoms: _76  and  _79
REMARK   34  A    between atoms: _79  and  _80
REMARK   35  A    between atoms: _83  and  _85
REMARK   36  A    between atoms: _85  and  _86
REMARK   37  A    between atoms: _85  and  _88
REMARK   38  A    between atoms: _88  and  _89
REMARK   39  A    between atoms: _92  and  _94
REMARK   40  A    between atoms: _94  and  _95
REMARK   41  A    between atoms: _94  and  _97
REMARK   42  A    between atoms: _100  and  _102
REMARK   43  A    between atoms: _102  and  _103
REMARK   44  A    between atoms: _102  and  _105
REMARK   45  A    between atoms: _105  and  _106
REMARK   46  A    between atoms: _106  and  _107
REMARK   47  A    between atoms: _107  and  _108
REMARK   48  A    between atoms: _108  and  _109
REMARK   49  A    between atoms: _113  and  _115
REMARK   50  A    between atoms: _115  and  _116
REMARK   51  A    between atoms: _115  and  _118
REMARK   52  A    between atoms: _118  and  _119
REMARK   53  A    between atoms: _119  and  _120
REMARK   54  A    between atoms: _122  and  _124
REMARK   55  A    between atoms: _124  and  _125
REMARK   56  A    between atoms: _124  and  _127
REMARK   57  A    between atoms: _127  and  _128
REMARK   58  A    between atoms: _131  and  _133
REMARK   59  A    between atoms: _133  and  _134
REMARK   60  A    between atoms: _133  and  _136
REMARK   61  A    between atoms: _139  and  _141
REMARK   62  A    between atoms: _141  and  _142
REMARK   63  A    between atoms: _144  and  _146
REMARK   64  A    between atoms: _146  and  _147
REMARK   65  A    between atoms: _146  and  _149
REMARK   66  A    between atoms: _149  and  _150
REMARK   67  A    between atoms: _153  and  _155
REMARK   68  A    between atoms: _155  and  _156
REMARK   69  A    between atoms: _158  and  _160
REMARK   70  A    between atoms: _160  and  _161
REMARK   71  A    between atoms: _163  and  _165
REMARK   72  A    between atoms: _165  and  _166
REMARK   73  A    between atoms: _165  and  _168
REMARK   74  A    between atoms: _171  and  _173
REMARK   75  A    between atoms: _173  and  _174
REMARK   76  A    between atoms: _173  and  _176
REMARK   77  A    between atoms: _179  and  _181
REMARK   78  A    between atoms: _181  and  _182
REMARK   79  A    between atoms: _181  and  _184
REMARK   80  A    between atoms: _184  and  _185
REMARK   81  A    between atoms: _188  and  _190
REMARK   82  A    between atoms: _190  and  _191
REMARK   83  A    between atoms: _190  and  _193
REMARK   84  A    between atoms: _193  and  _194
REMARK   85  A    between atoms: _198  and  _199
REMARK   86  A    between atoms: _204  and  _206
REMARK   87  A    between atoms: _206  and  _207
REMARK   88  A    between atoms: _210  and  _212
REMARK   89  A    between atoms: _212  and  _213
REMARK   90  A    between atoms: _212  and  _215
REMARK   91  A    between atoms: _215  and  _216
REMARK   92  A    between atoms: _221  and  _223
REMARK   93  A    between atoms: _223  and  _224
REMARK   94  A    between atoms: _223  and  _226
REMARK   95  A    between atoms: _226  and  _227
REMARK   96  A    between atoms: _230  and  _232
REMARK   97  A    between atoms: _232  and  _233
REMARK   98  A    between atoms: _232  and  _235
REMARK   99  A    between atoms: _235  and  _236
REMARK  100  A    between atoms: _239  and  _241
REMARK  101  A    between atoms: _241  and  _242
REMARK  102  A    between atoms: _244  and  _246
REMARK  103  A    between atoms: _246  and  _247
REMARK  104  A    between atoms: _246  and  _249
REMARK  105  A    between atoms: _249  and  _250
REMARK  106  A    between atoms: _250  and  _251
REMARK  107  A    between atoms: _251  and  _252
REMARK  108  A    between atoms: _261  and  _263
REMARK  109  A    between atoms: _263  and  _264
REMARK  110  A    between atoms: _263  and  _266
REMARK  111  A    between atoms: _266  and  _267
REMARK  112  A    between atoms: _272  and  _274
REMARK  113  A    between atoms: _274  and  _275
REMARK  114  A    between atoms: _274  and  _277
REMARK  115  A    between atoms: _277  and  _278
REMARK  116  A    between atoms: _278  and  _279
REMARK  117  A    between atoms: _279  and  _280
REMARK  118  A    between atoms: _289  and  _291
REMARK  119  A    between atoms: _291  and  _292
REMARK  120  A    between atoms: _291  and  _294
REMARK  121  A    between atoms: _294  and  _295
REMARK  122  A    between atoms: _298  and  _300
REMARK  123  A    between atoms: _300  and  _301
REMARK  124  A    between atoms: _300  and  _303
REMARK  125  A    between atoms: _303  and  _304
REMARK  126  A    between atoms: _307  and  _309
REMARK  127  A    between atoms: _309  and  _310
REMARK  128  A    between atoms: _309  and  _312
REMARK  129  A    between atoms: _312  and  _313
REMARK  130  A    between atoms: _316  and  _318
REMARK  131  A    between atoms: _318  and  _319
REMARK  132  A    between atoms: _318  and  _321
REMARK  133  A    between atoms: _321  and  _322
REMARK  134  A    between atoms: _325  and  _327
REMARK  135  A    between atoms: _327  and  _328
REMARK  136  A    between atoms: _330  and  _332
REMARK  137  A    between atoms: _332  and  _333
REMARK  138  A    between atoms: _336  and  _338
REMARK  139  A    between atoms: _338  and  _339
REMARK  140  A    between atoms: _338  and  _341
REMARK  141  A    between atoms: _341  and  _342
REMARK  142  A    between atoms: _345  and  _347
REMARK  143  A    between atoms: _347  and  _348
REMARK  144  A    between atoms: _347  and  _350
REMARK  145  A    between atoms: _350  and  _351
REMARK  146  A    between atoms: _354  and  _356
REMARK  147  A    between atoms: _356  and  _357
REMARK  148  A    between atoms: _356  and  _359
REMARK  149  A    between atoms: _359  and  _360
REMARK  150  A    between atoms: _363  and  _365
REMARK  151  A    between atoms: _365  and  _366
REMARK  152  A    between atoms: _365  and  _368
REMARK  153  A    between atoms: _371  and  _373
REMARK  154  A    between atoms: _373  and  _374
REMARK  155  A    between atoms: _373  and  _376
REMARK  156  A    between atoms: _376  and  _377
REMARK  157  A    between atoms: _380  and  _382
REMARK  158  A    between atoms: _382  and  _383
REMARK  159  A    between atoms: _382  and  _385
REMARK  160  A    between atoms: _385  and  _386
REMARK  161  A    between atoms: _386  and  _387
REMARK  162  A    between atoms: _387  and  _388
REMARK  163  A    between atoms: _388  and  _389
REMARK  164  A    between atoms: _393  and  _395
REMARK  165  A    between atoms: _395  and  _396
REMARK  166  A    between atoms: _395  and  _398
REMARK  167  A    between atoms: _398  and  _399
REMARK  168  A    between atoms: _399  and  _400
REMARK  169  A    between atoms: _402  and  _404
REMARK  170  A    between atoms: _404  and  _405
REMARK  171  A    between atoms: _404  and  _407
REMARK  172  A    between atoms: _407  and  _408
REMARK  173  A    between atoms: _411  and  _413
REMARK  174  A    between atoms: _413  and  _414
REMARK  175  A    between atoms: _413  and  _416
REMARK  176  A    between atoms: _419  and  _421
REMARK  177  A    between atoms: _421  and  _422
REMARK  178  A    between atoms: _424  and  _426
REMARK  179  A    between atoms: _426  and  _427
REMARK  180  A    between atoms: _426  and  _429
REMARK  181  A    between atoms: _429  and  _430
REMARK  182  A    between atoms: _433  and  _435
REMARK  183  A    between atoms: _435  and  _436
REMARK  184  A    between atoms: _438  and  _440
REMARK  185  A    between atoms: _440  and  _441
REMARK  186  A    between atoms: _443  and  _445
REMARK  187  A    between atoms: _445  and  _446
REMARK  188  A    between atoms: _445  and  _448
REMARK  189  A    between atoms: _451  and  _453
REMARK  190  A    between atoms: _453  and  _454
REMARK  191  A    between atoms: _453  and  _456
REMARK  192  A    between atoms: _459  and  _461
REMARK  193  A    between atoms: _461  and  _462
REMARK  194  A    between atoms: _461  and  _464
REMARK  195  A    between atoms: _464  and  _465
REMARK  196  A    between atoms: _469  and  _470
REMARK  197  A    between atoms: _475  and  _477
REMARK  198  A    between atoms: _477  and  _478
REMARK  199  A    between atoms: _477  and  _480
REMARK  200  A    between atoms: _480  and  _481
REMARK  201  A    between atoms: _485  and  _486
REMARK  202  A    between atoms: _491  and  _493
REMARK  203  A    between atoms: _493  and  _494
REMARK  204  A    between atoms: _497  and  _499
REMARK  205  A    between atoms: _499  and  _500
REMARK  206  A    between atoms: _499  and  _502
REMARK  207  A    between atoms: _502  and  _503
REMARK  208  A    between atoms: _508  and  _510
REMARK  209  A    between atoms: _510  and  _511
REMARK  210  A    between atoms: _510  and  _513
REMARK  211  A    between atoms: _513  and  _514
REMARK  212  A    between atoms: _517  and  _519
REMARK  213  A    between atoms: _519  and  _520
REMARK  214  A    between atoms: _519  and  _522
REMARK  215  A    between atoms: _522  and  _523
REMARK  216  A    between atoms: _526  and  _528
REMARK  217  A    between atoms: _528  and  _529
REMARK  218  A    between atoms: _531  and  _533
REMARK  219  A    between atoms: _533  and  _534
REMARK  220  A    between atoms: _533  and  _536
REMARK  221  A    between atoms: _536  and  _537
REMARK  222  A    between atoms: _537  and  _538
REMARK  223  A    between atoms: _538  and  _539
REMARK  224  A    between atoms: _548  and  _550
REMARK  225  A    between atoms: _550  and  _551
REMARK  226  A    between atoms: _550  and  _553
REMARK  227  A    between atoms: _553  and  _554
REMARK                            x       y       z     vdW  Elec       q    Type
REMARK                         _______ _______ _______ _____ _____    ______ ____
ROOT
ATOM      1  O   HOH     1      14.749  40.987 -18.924  0.00  0.00    +0.000 OA
ENDROOT
TORSDOF 0
REMARK  Name = ../refined-set-2016/3ekt/3ekt_pocket.pdb
REMARK  227 active torsions:
REMARK  status: ('A' for Active; 'I' for Inactive)
REMARK    1  A    between atoms: _1  and  _3
REMARK    2  A    between atoms: _3  and  _4
REMARK    3  A    between atoms: _3  and  _6
REMARK    4  A    between atoms: _6  and  _7
REMARK    5  A    between atoms: _7  and  _8
REMARK    6  A    between atoms: _8  and  _9
REMARK    7  A    between atoms: _18  and  _20
REMARK    8  A    between atoms: _20  and  _21
REMARK    9  A    between atoms: _20  and  _23
REMARK   10  A    between atoms: _23  and  _24
REMARK   11  A    between atoms: _27  and  _29
REMARK   12  A    between atoms: _29  and  _30
REMARK   13  A    between atoms: _29  and  _32
REMARK   14  A    between atoms: _32  and  _33
REMARK   15  A    between atoms: _36  and  _38
REMARK   16  A    between atoms: _38  and  _39
REMARK   17  A    between atoms: _38  and  _41
REMARK   18  A    between atoms: _41  and  _42
REMARK   19  A    between atoms: _45  and  _47
REMARK   20  A    between atoms: _47  and  _48
REMARK   21  A    between atoms: _47  and  _50
REMARK   22  A    between atoms: _50  and  _51
REMARK   23  A    between atoms: _54  and  _56
REMARK   24  A    between atoms: _56  and  _57
REMARK   25  A    between atoms: _59  and  _61
REMARK   26  A    between atoms: _61  and  _62
REMARK   27  A    between atoms: _65  and  _67
REMARK   28  A    between atoms: _67  and  _68
REMARK   29  A    between atoms: _67  and  _70
REMARK   30  A    between atoms: _70  and  _71
REMARK   31  A    between atoms: _74  and  _76
REMARK   32  A    between atoms: _76  and  _77
REMARK   33  A    between atoms: _76  and  _79
REMARK   34  A    between atoms: _79  and  _80
REMARK   35  A    between atoms: _83  and  _85
REMARK   36  A    between atoms: _85  and  _86
REMARK   37  A    between atoms: _85  and  _88
REMARK   38  A    between atoms: _88  and  _89
REMARK   39  A    between atoms: _92  and  _94
REMARK   40  A    between atoms: _94  and  _95
REMARK   41  A    between atoms: _94  and  _97
REMARK   42  A    between atoms: _100  and  _102
REMARK   43  A    between atoms: _102  and  _103
REMARK   44  A    between atoms: _102  and  _105
REMARK   45  A    between atoms: _105  and  _106
REMARK   46  A    between atoms: _106  and  _107
REMARK   47  A    between atoms: _107  and  _108
REMARK   48  A    between atoms: _108  and  _109
REMARK   49  A    between atoms: _113  and  _115
REMARK   50  A    between atoms: _115  and  _116
REMARK   51  A    between atoms: _115  and  _118
REMARK   52  A    between atoms: _118  and  _119
REMARK   53  A    between atoms: _119  and  _120
REMARK   54  A    between atoms: _122  and  _124
REMARK   55  A    between atoms: _124  and  _125
REMARK   56  A    between atoms: _124  and  _127
REMARK   57  A    between atoms: _127  and  _128
REMARK   58  A    between atoms: _131  and  _133
REMARK   59  A    between atoms: _133  and  _134
REMARK   60  A    between atoms: _133  and  _136
REMARK   61  A    between atoms: _139  and  _141
REMARK   62  A    between atoms: _141  and  _142
REMARK   63  A    between atoms: _144  and  _146
REMARK   64  A    between atoms: _146  and  _147
REMARK   65  A    between atoms: _146  and  _149
REMARK   66  A    between atoms: _149  and  _150
REMARK   67  A    between atoms: _153  and  _155
REMARK   68  A    between atoms: _155  and  _156
REMARK   69  A    between atoms: _158  and  _160
REMARK   70  A    between atoms: _160  and  _161
REMARK   71  A    between atoms: _163  and  _165
REMARK   72  A    between atoms: _165  and  _166
REMARK   73  A    between atoms: _165  and  _168
REMARK   74  A    between atoms: _171  and  _173
REMARK   75  A    between atoms: _173  and  _174
REMARK   76  A    between atoms: _173  and  _176
REMARK   77  A    between atoms: _179  and  _181
REMARK   78  A    between atoms: _181  and  _182
REMARK   79  A    between atoms: _181  and  _184
REMARK   80  A    between atoms: _184  and  _185
REMARK   81  A    between atoms: _188  and  _190
REMARK   82  A    between atoms: _190  and  _191
REMARK   83  A    between atoms: _190  and  _193
REMARK   84  A    between atoms: _193  and  _194
REMARK   85  A    between atoms: _198  and  _199
REMARK   86  A    between atoms: _204  and  _206
REMARK   87  A    between atoms: _206  and  _207
REMARK   88  A    between atoms: _210  and  _212
REMARK   89  A    between atoms: _212  and  _213
REMARK   90  A    between atoms: _212  and  _215
REMARK   91  A    between atoms: _215  and  _216
REMARK   92  A    between atoms: _221  and  _223
REMARK   93  A    between atoms: _223  and  _224
REMARK   94  A    between atoms: _223  and  _226
REMARK   95  A    between atoms: _226  and  _227
REMARK   96  A    between atoms: _230  and  _232
REMARK   97  A    between atoms: _232  and  _233
REMARK   98  A    between atoms: _232  and  _235
REMARK   99  A    between atoms: _235  and  _236
REMARK  100  A    between atoms: _239  and  _241
REMARK  101  A    between atoms: _241  and  _242
REMARK  102  A    between atoms: _244  and  _246
REMARK  103  A    between atoms: _246  and  _247
REMARK  104  A    between atoms: _246  and  _249
REMARK  105  A    between atoms: _249  and  _250
REMARK  106  A    between atoms: _250  and  _251
REMARK  107  A    between atoms: _251  and  _252
REMARK  108  A    between atoms: _261  and  _263
REMARK  109  A    between atoms: _263  and  _264
REMARK  110  A    between atoms: _263  and  _266
REMARK  111  A    between atoms: _266  and  _267
REMARK  112  A    between atoms: _272  and  _274
REMARK  113  A    between atoms: _274  and  _275
REMARK  114  A    between atoms: _274  and  _277
REMARK  115  A    between atoms: _277  and  _278
REMARK  116  A    between atoms: _278  and  _279
REMARK  117  A    between atoms: _279  and  _280
REMARK  118  A    between atoms: _289  and  _291
REMARK  119  A    between atoms: _291  and  _292
REMARK  120  A    between atoms: _291  and  _294
REMARK  121  A    between atoms: _294  and  _295
REMARK  122  A    between atoms: _298  and  _300
REMARK  123  A    between atoms: _300  and  _301
REMARK  124  A    between atoms: _300  and  _303
REMARK  125  A    between atoms: _303  and  _304
REMARK  126  A    between atoms: _307  and  _309
REMARK  127  A    between atoms: _309  and  _310
REMARK  128  A    between atoms: _309  and  _312
REMARK  129  A    between atoms: _312  and  _313
REMARK  130  A    between atoms: _316  and  _318
REMARK  131  A    between atoms: _318  and  _319
REMARK  132  A    between atoms: _318  and  _321
REMARK  133  A    between atoms: _321  and  _322
REMARK  134  A    between atoms: _325  and  _327
REMARK  135  A    between atoms: _327  and  _328
REMARK  136  A    between atoms: _330  and  _332
REMARK  137  A    between atoms: _332  and  _333
REMARK  138  A    between atoms: _336  and  _338
REMARK  139  A    between atoms: _338  and  _339
REMARK  140  A    between atoms: _338  and  _341
REMARK  141  A    between atoms: _341  and  _342
REMARK  142  A    between atoms: _345  and  _347
REMARK  143  A    between atoms: _347  and  _348
REMARK  144  A    between atoms: _347  and  _350
REMARK  145  A    between atoms: _350  and  _351
REMARK  146  A    between atoms: _354  and  _356
REMARK  147  A    between atoms: _356  and  _357
REMARK  148  A    between atoms: _356  and  _359
REMARK  149  A    between atoms: _359  and  _360
REMARK  150  A    between atoms: _363  and  _365
REMARK  151  A    between atoms: _365  and  _366
REMARK  152  A    between atoms: _365  and  _368
REMARK  153  A    between atoms: _371  and  _373
REMARK  154  A    between atoms: _373  and  _374
REMARK  155  A    between atoms: _373  and  _376
REMARK  156  A    between atoms: _376  and  _377
REMARK  157  A    between atoms: _380  and  _382
REMARK  158  A    between atoms: _382  and  _383
REMARK  159  A    between atoms: _382  and  _385
REMARK  160  A    between atoms: _385  and  _386
REMARK  161  A    between atoms: _386  and  _387
REMARK  162  A    between atoms: _387  and  _388
REMARK  163  A    between atoms: _388  and  _389
REMARK  164  A    between atoms: _393  and  _395
REMARK  165  A    between atoms: _395  and  _396
REMARK  166  A    between atoms: _395  and  _398
REMARK  167  A    between atoms: _398  and  _399
REMARK  168  A    between atoms: _399  and  _400
REMARK  169  A    between atoms: _402  and  _404
REMARK  170  A    between atoms: _404  and  _405
REMARK  171  A    between atoms: _404  and  _407
REMARK  172  A    between atoms: _407  and  _408
REMARK  173  A    between atoms: _411  and  _413
REMARK  174  A    between atoms: _413  and  _414
REMARK  175  A    between atoms: _413  and  _416
REMARK  176  A    between atoms: _419  and  _421
REMARK  177  A    between atoms: _421  and  _422
REMARK  178  A    between atoms: _424  and  _426
REMARK  179  A    between atoms: _426  and  _427
REMARK  180  A    between atoms: _426  and  _429
REMARK  181  A    between atoms: _429  and  _430
REMARK  182  A    between atoms: _433  and  _435
REMARK  183  A    between atoms: _435  and  _436
REMARK  184  A    between atoms: _438  and  _440
REMARK  185  A    between atoms: _440  and  _441
REMARK  186  A    between atoms: _443  and  _445
REMARK  187  A    between atoms: _445  and  _446
REMARK  188  A    between atoms: _445  and  _448
REMARK  189  A    between atoms: _451  and  _453
REMARK  190  A    between atoms: _453  and  _454
REMARK  191  A    between atoms: _453  and  _456
REMARK  192  A    between atoms: _459  and  _461
REMARK  193  A    between atoms: _461  and  _462
REMARK  194  A    between atoms: _461  and  _464
REMARK  195  A    between atoms: _464  and  _465
REMARK  196  A    between atoms: _469  and  _470
REMARK  197  A    between atoms: _475  and  _477
REMARK  198  A    between atoms: _477  and  _478
REMARK  199  A    between atoms: _477  and  _480
REMARK  200  A    between atoms: _480  and  _481
REMARK  201  A    between atoms: _485  and  _486
REMARK  202  A    between atoms: _491  and  _493
REMARK  203  A    between atoms: _493  and  _494
REMARK  204  A    between atoms: _497  and  _499
REMARK  205  A    between atoms: _499  and  _500
REMARK  206  A    between atoms: _499  and  _502
REMARK  207  A    between atoms: _502  and  _503
REMARK  208  A    between atoms: _508  and  _510
REMARK  209  A    between atoms: _510  and  _511
REMARK  210  A    between atoms: _510  and  _513
REMARK  211  A    between atoms: _513  and  _514
REMARK  212  A    between atoms: _517  and  _519
REMARK  213  A    between atoms: _519  and  _520
REMARK  214  A    between atoms: _519  and  _522
REMARK  215  A    between atoms: _522  and  _523
REMARK  216  A    between atoms: _526  and  _528
REMARK  217  A    between atoms: _528  and  _529
REMARK  218  A    between atoms: _531  and  _533
REMARK  219  A    between atoms: _533  and  _534
REMARK  220  A    between atoms: _533  and  _536
REMARK  221  A    between atoms: _536  and  _537
REMARK  222  A    between atoms: _537  and  _538
REMARK  223  A    between atoms: _538  and  _539
REMARK  224  A    between atoms: _548  and  _550
REMARK  225  A    between atoms: _550  and  _551
REMARK  226  A    between atoms: _550  and  _553
REMARK  227  A    between atoms: _553  and  _554
REMARK                            x       y       z     vdW  Elec       q    Type
REMARK                         _______ _______ _______ _____ _____    ______ ____
ROOT
ATOM      1  O   HOH     1      22.305  54.763 -12.728  0.00  0.00    +0.000 OA
ENDROOT
TORSDOF 0
REMARK  Name = ../refined-set-2016/3ekt/3ekt_pocket.pdb
REMARK  227 active torsions:
REMARK  status: ('A' for Active; 'I' for Inactive)
REMARK    1  A    between atoms: _1  and  _3
REMARK    2  A    between atoms: _3  and  _4
REMARK    3  A    between atoms: _3  and  _6
REMARK    4  A    between atoms: _6  and  _7
REMARK    5  A    between atoms: _7  and  _8
REMARK    6  A    between atoms: _8  and  _9
REMARK    7  A    between atoms: _18  and  _20
REMARK    8  A    between atoms: _20  and  _21
REMARK    9  A    between atoms: _20  and  _23
REMARK   10  A    between atoms: _23  and  _24
REMARK   11  A    between atoms: _27  and  _29
REMARK   12  A    between atoms: _29  and  _30
REMARK   13  A    between atoms: _29  and  _32
REMARK   14  A    between atoms: _32  and  _33
REMARK   15  A    between atoms: _36  and  _38
REMARK   16  A    between atoms: _38  and  _39
REMARK   17  A    between atoms: _38  and  _41
REMARK   18  A    between atoms: _41  and  _42
REMARK   19  A    between atoms: _45  and  _47
REMARK   20  A    between atoms: _47  and  _48
REMARK   21  A    between atoms: _47  and  _50
REMARK   22  A    between atoms: _50  and  _51
REMARK   23  A    between atoms: _54  and  _56
REMARK   24  A    between atoms: _56  and  _57
REMARK   25  A    between atoms: _59  and  _61
REMARK   26  A    between atoms: _61  and  _62
REMARK   27  A    between atoms: _65  and  _67
REMARK   28  A    between atoms: _67  and  _68
REMARK   29  A    between atoms: _67  and  _70
REMARK   30  A    between atoms: _70  and  _71
REMARK   31  A    between atoms: _74  and  _76
REMARK   32  A    between atoms: _76  and  _77
REMARK   33  A    between atoms: _76  and  _79
REMARK   34  A    between atoms: _79  and  _80
REMARK   35  A    between atoms: _83  and  _85
REMARK   36  A    between atoms: _85  and  _86
REMARK   37  A    between atoms: _85  and  _88
REMARK   38  A    between atoms: _88  and  _89
REMARK   39  A    between atoms: _92  and  _94
REMARK   40  A    between atoms: _94  and  _95
REMARK   41  A    between atoms: _94  and  _97
REMARK   42  A    between atoms: _100  and  _102
REMARK   43  A    between atoms: _102  and  _103
REMARK   44  A    between atoms: _102  and  _105
REMARK   45  A    between atoms: _105  and  _106
REMARK   46  A    between atoms: _106  and  _107
REMARK   47  A    between atoms: _107  and  _108
REMARK   48  A    between atoms: _108  and  _109
REMARK   49  A    between atoms: _113  and  _115
REMARK   50  A    between atoms: _115  and  _116
REMARK   51  A    between atoms: _115  and  _118
REMARK   52  A    between atoms: _118  and  _119
REMARK   53  A    between atoms: _119  and  _120
REMARK   54  A    between atoms: _122  and  _124
REMARK   55  A    between atoms: _124  and  _125
REMARK   56  A    between atoms: _124  and  _127
REMARK   57  A    between atoms: _127  and  _128
REMARK   58  A    between atoms: _131  and  _133
REMARK   59  A    between atoms: _133  and  _134
REMARK   60  A    between atoms: _133  and  _136
REMARK   61  A    between atoms: _139  and  _141
REMARK   62  A    between atoms: _141  and  _142
REMARK   63  A    between atoms: _144  and  _146
REMARK   64  A    between atoms: _146  and  _147
REMARK   65  A    between atoms: _146  and  _149
REMARK   66  A    between atoms: _149  and  _150
REMARK   67  A    between atoms: _153  and  _155
REMARK   68  A    between atoms: _155  and  _156
REMARK   69  A    between atoms: _158  and  _160
REMARK   70  A    between atoms: _160  and  _161
REMARK   71  A    between atoms: _163  and  _165
REMARK   72  A    between atoms: _165  and  _166
REMARK   73  A    between atoms: _165  and  _168
REMARK   74  A    between atoms: _171  and  _173
REMARK   75  A    between atoms: _173  and  _174
REMARK   76  A    between atoms: _173  and  _176
REMARK   77  A    between atoms: _179  and  _181
REMARK   78  A    between atoms: _181  and  _182
REMARK   79  A    between atoms: _181  and  _184
REMARK   80  A    between atoms: _184  and  _185
REMARK   81  A    between atoms: _188  and  _190
REMARK   82  A    between atoms: _190  and  _191
REMARK   83  A    between atoms: _190  and  _193
REMARK   84  A    between atoms: _193  and  _194
REMARK   85  A    between atoms: _198  and  _199
REMARK   86  A    between atoms: _204  and  _206
REMARK   87  A    between atoms: _206  and  _207
REMARK   88  A    between atoms: _210  and  _212
REMARK   89  A    between atoms: _212  and  _213
REMARK   90  A    between atoms: _212  and  _215
REMARK   91  A    between atoms: _215  and  _216
REMARK   92  A    between atoms: _221  and  _223
REMARK   93  A    between atoms: _223  and  _224
REMARK   94  A    between atoms: _223  and  _226
REMARK   95  A    between atoms: _226  and  _227
REMARK   96  A    between atoms: _230  and  _232
REMARK   97  A    between atoms: _232  and  _233
REMARK   98  A    between atoms: _232  and  _235
REMARK   99  A    between atoms: _235  and  _236
REMARK  100  A    between atoms: _239  and  _241
REMARK  101  A    between atoms: _241  and  _242
REMARK  102  A    between atoms: _244  and  _246
REMARK  103  A    between atoms: _246  and  _247
REMARK  104  A    between atoms: _246  and  _249
REMARK  105  A    between atoms: _249  and  _250
REMARK  106  A    between atoms: _250  and  _251
REMARK  107  A    between atoms: _251  and  _252
REMARK  108  A    between atoms: _261  and  _263
REMARK  109  A    between atoms: _263  and  _264
REMARK  110  A    between atoms: _263  and  _266
REMARK  111  A    between atoms: _266  and  _267
REMARK  112  A    between atoms: _272  and  _274
REMARK  113  A    between atoms: _274  and  _275
REMARK  114  A    between atoms: _274  and  _277
REMARK  115  A    between atoms: _277  and  _278
REMARK  116  A    between atoms: _278  and  _279
REMARK  117  A    between atoms: _279  and  _280
REMARK  118  A    between atoms: _289  and  _291
REMARK  119  A    between atoms: _291  and  _292
REMARK  120  A    between atoms: _291  and  _294
REMARK  121  A    between atoms: _294  and  _295
REMARK  122  A    between atoms: _298  and  _300
REMARK  123  A    between atoms: _300  and  _301
REMARK  124  A    between atoms: _300  and  _303
REMARK  125  A    between atoms: _303  and  _304
REMARK  126  A    between atoms: _307  and  _309
REMARK  127  A    between atoms: _309  and  _310
REMARK  128  A    between atoms: _309  and  _312
REMARK  129  A    between atoms: _312  and  _313
REMARK  130  A    between atoms: _316  and  _318
REMARK  131  A    between atoms: _318  and  _319
REMARK  132  A    between atoms: _318  and  _321
REMARK  133  A    between atoms: _321  and  _322
REMARK  134  A    between atoms: _325  and  _327
REMARK  135  A    between atoms: _327  and  _328
REMARK  136  A    between atoms: _330  and  _332
REMARK  137  A    between atoms: _332  and  _333
REMARK  138  A    between atoms: _336  and  _338
REMARK  139  A    between atoms: _338  and  _339
REMARK  140  A    between atoms: _338  and  _341
REMARK  141  A    between atoms: _341  and  _342
REMARK  142  A    between atoms: _345  and  _347
REMARK  143  A    between atoms: _347  and  _348
REMARK  144  A    between atoms: _347  and  _350
REMARK  145  A    between atoms: _350  and  _351
REMARK  146  A    between atoms: _354  and  _356
REMARK  147  A    between atoms: _356  and  _357
REMARK  148  A    between atoms: _356  and  _359
REMARK  149  A    between atoms: _359  and  _360
REMARK  150  A    between atoms: _363  and  _365
REMARK  151  A    between atoms: _365  and  _366
REMARK  152  A    between atoms: _365  and  _368
REMARK  153  A    between atoms: _371  and  _373
REMARK  154  A    between atoms: _373  and  _374
REMARK  155  A    between atoms: _373  and  _376
REMARK  156  A    between atoms: _376  and  _377
REMARK  157  A    between atoms: _380  and  _382
REMARK  158  A    between atoms: _382  and  _383
REMARK  159  A    between atoms: _382  and  _385
REMARK  160  A    between atoms: _385  and  _386
REMARK  161  A    between atoms: _386  and  _387
REMARK  162  A    between atoms: _387  and  _388
REMARK  163  A    between atoms: _388  and  _389
REMARK  164  A    between atoms: _393  and  _395
REMARK  165  A    between atoms: _395  and  _396
REMARK  166  A    between atoms: _395  and  _398
REMARK  167  A    between atoms: _398  and  _399
REMARK  168  A    between atoms: _399  and  _400
REMARK  169  A    between atoms: _402  and  _404
REMARK  170  A    between atoms: _404  and  _405
REMARK  171  A    between atoms: _404  and  _407
REMARK  172  A    between atoms: _407  and  _408
REMARK  173  A    between atoms: _411  and  _413
REMARK  174  A    between atoms: _413  and  _414
REMARK  175  A    between atoms: _413  and  _416
REMARK  176  A    between atoms: _419  and  _421
REMARK  177  A    between atoms: _421  and  _422
REMARK  178  A    between atoms: _424  and  _426
REMARK  179  A    between atoms: _426  and  _427
REMARK  180  A    between atoms: _426  and  _429
REMARK  181  A    between atoms: _429  and  _430
REMARK  182  A    between atoms: _433  and  _435
REMARK  183  A    between atoms: _435  and  _436
REMARK  184  A    between atoms: _438  and  _440
REMARK  185  A    between atoms: _440  and  _441
REMARK  186  A    between atoms: _443  and  _445
REMARK  187  A    between atoms: _445  and  _446
REMARK  188  A    between atoms: _445  and  _448
REMARK  189  A    between atoms: _451  and  _453
REMARK  190  A    between atoms: _453  and  _454
REMARK  191  A    between atoms: _453  and  _456
REMARK  192  A    between atoms: _459  and  _461
REMARK  193  A    between atoms: _461  and  _462
REMARK  194  A    between atoms: _461  and  _464
REMARK  195  A    between atoms: _464  and  _465
REMARK  196  A    between atoms: _469  and  _470
REMARK  197  A    between atoms: _475  and  _477
REMARK  198  A    between atoms: _477  and  _478
REMARK  199  A    between atoms: _477  and  _480
REMARK  200  A    between atoms: _480  and  _481
REMARK  201  A    between atoms: _485  and  _486
REMARK  202  A    between atoms: _491  and  _493
REMARK  203  A    between atoms: _493  and  _494
REMARK  204  A    between atoms: _497  and  _499
REMARK  205  A    between atoms: _499  and  _500
REMARK  206  A    between atoms: _499  and  _502
REMARK  207  A    between atoms: _502  and  _503
REMARK  208  A    between atoms: _508  and  _510
REMARK  209  A    between atoms: _510  and  _511
REMARK  210  A    between atoms: _510  and  _513
REMARK  211  A    between atoms: _513  and  _514
REMARK  212  A    between atoms: _517  and  _519
REMARK  213  A    between atoms: _519  and  _520
REMARK  214  A    between atoms: _519  and  _522
REMARK  215  A    between atoms: _522  and  _523
REMARK  216  A    between atoms: _526  and  _528
REMARK  217  A    between atoms: _528  and  _529
REMARK  218  A    between atoms: _531  and  _533
REMARK  219  A    between atoms: _533  and  _534
REMARK  220  A    between atoms: _533  and  _536
REMARK  221  A    between atoms: _536  and  _537
REMARK  222  A    between atoms: _537  and  _538
REMARK  223  A    between atoms: _538  and  _539
REMARK  224  A    between atoms: _548  and  _550
REMARK  225  A    between atoms: _550  and  _551
REMARK  226  A    between atoms: _550  and  _553
REMARK  227  A    between atoms: _553  and  _554
REMARK                            x       y       z     vdW  Elec       q    Type
REMARK                         _______ _______ _______ _____ _____    ______ ____
ROOT
ATOM      1  O   HOH     1      19.877  55.555  -9.536  0.00  0.00    +0.000 OA
ENDROOT
TORSDOF 0
REMARK  Name = ../refined-set-2016/3ekt/3ekt_pocket.pdb
REMARK  227 active torsions:
REMARK  status: ('A' for Active; 'I' for Inactive)
REMARK    1  A    between atoms: _1  and  _3
REMARK    2  A    between atoms: _3  and  _4
REMARK    3  A    between atoms: _3  and  _6
REMARK    4  A    between atoms: _6  and  _7
REMARK    5  A    between atoms: _7  and  _8
REMARK    6  A    between atoms: _8  and  _9
REMARK    7  A    between atoms: _18  and  _20
REMARK    8  A    between atoms: _20  and  _21
REMARK    9  A    between atoms: _20  and  _23
REMARK   10  A    between atoms: _23  and  _24
REMARK   11  A    between atoms: _27  and  _29
REMARK   12  A    between atoms: _29  and  _30
REMARK   13  A    between atoms: _29  and  _32
REMARK   14  A    between atoms: _32  and  _33
REMARK   15  A    between atoms: _36  and  _38
REMARK   16  A    between atoms: _38  and  _39
REMARK   17  A    between atoms: _38  and  _41
REMARK   18  A    between atoms: _41  and  _42
REMARK   19  A    between atoms: _45  and  _47
REMARK   20  A    between atoms: _47  and  _48
REMARK   21  A    between atoms: _47  and  _50
REMARK   22  A    between atoms: _50  and  _51
REMARK   23  A    between atoms: _54  and  _56
REMARK   24  A    between atoms: _56  and  _57
REMARK   25  A    between atoms: _59  and  _61
REMARK   26  A    between atoms: _61  and  _62
REMARK   27  A    between atoms: _65  and  _67
REMARK   28  A    between atoms: _67  and  _68
REMARK   29  A    between atoms: _67  and  _70
REMARK   30  A    between atoms: _70  and  _71
REMARK   31  A    between atoms: _74  and  _76
REMARK   32  A    between atoms: _76  and  _77
REMARK   33  A    between atoms: _76  and  _79
REMARK   34  A    between atoms: _79  and  _80
REMARK   35  A    between atoms: _83  and  _85
REMARK   36  A    between atoms: _85  and  _86
REMARK   37  A    between atoms: _85  and  _88
REMARK   38  A    between atoms: _88  and  _89
REMARK   39  A    between atoms: _92  and  _94
REMARK   40  A    between atoms: _94  and  _95
REMARK   41  A    between atoms: _94  and  _97
REMARK   42  A    between atoms: _100  and  _102
REMARK   43  A    between atoms: _102  and  _103
REMARK   44  A    between atoms: _102  and  _105
REMARK   45  A    between atoms: _105  and  _106
REMARK   46  A    between atoms: _106  and  _107
REMARK   47  A    between atoms: _107  and  _108
REMARK   48  A    between atoms: _108  and  _109
REMARK   49  A    between atoms: _113  and  _115
REMARK   50  A    between atoms: _115  and  _116
REMARK   51  A    between atoms: _115  and  _118
REMARK   52  A    between atoms: _118  and  _119
REMARK   53  A    between atoms: _119  and  _120
REMARK   54  A    between atoms: _122  and  _124
REMARK   55  A    between atoms: _124  and  _125
REMARK   56  A    between atoms: _124  and  _127
REMARK   57  A    between atoms: _127  and  _128
REMARK   58  A    between atoms: _131  and  _133
REMARK   59  A    between atoms: _133  and  _134
REMARK   60  A    between atoms: _133  and  _136
REMARK   61  A    between atoms: _139  and  _141
REMARK   62  A    between atoms: _141  and  _142
REMARK   63  A    between atoms: _144  and  _146
REMARK   64  A    between atoms: _146  and  _147
REMARK   65  A    between atoms: _146  and  _149
REMARK   66  A    between atoms: _149  and  _150
REMARK   67  A    between atoms: _153  and  _155
REMARK   68  A    between atoms: _155  and  _156
REMARK   69  A    between atoms: _158  and  _160
REMARK   70  A    between atoms: _160  and  _161
REMARK   71  A    between atoms: _163  and  _165
REMARK   72  A    between atoms: _165  and  _166
REMARK   73  A    between atoms: _165  and  _168
REMARK   74  A    between atoms: _171  and  _173
REMARK   75  A    between atoms: _173  and  _174
REMARK   76  A    between atoms: _173  and  _176
REMARK   77  A    between atoms: _179  and  _181
REMARK   78  A    between atoms: _181  and  _182
REMARK   79  A    between atoms: _181  and  _184
REMARK   80  A    between atoms: _184  and  _185
REMARK   81  A    between atoms: _188  and  _190
REMARK   82  A    between atoms: _190  and  _191
REMARK   83  A    between atoms: _190  and  _193
REMARK   84  A    between atoms: _193  and  _194
REMARK   85  A    between atoms: _198  and  _199
REMARK   86  A    between atoms: _204  and  _206
REMARK   87  A    between atoms: _206  and  _207
REMARK   88  A    between atoms: _210  and  _212
REMARK   89  A    between atoms: _212  and  _213
REMARK   90  A    between atoms: _212  and  _215
REMARK   91  A    between atoms: _215  and  _216
REMARK   92  A    between atoms: _221  and  _223
REMARK   93  A    between atoms: _223  and  _224
REMARK   94  A    between atoms: _223  and  _226
REMARK   95  A    between atoms: _226  and  _227
REMARK   96  A    between atoms: _230  and  _232
REMARK   97  A    between atoms: _232  and  _233
REMARK   98  A    between atoms: _232  and  _235
REMARK   99  A    between atoms: _235  and  _236
REMARK  100  A    between atoms: _239  and  _241
REMARK  101  A    between atoms: _241  and  _242
REMARK  102  A    between atoms: _244  and  _246
REMARK  103  A    between atoms: _246  and  _247
REMARK  104  A    between atoms: _246  and  _249
REMARK  105  A    between atoms: _249  and  _250
REMARK  106  A    between atoms: _250  and  _251
REMARK  107  A    between atoms: _251  and  _252
REMARK  108  A    between atoms: _261  and  _263
REMARK  109  A    between atoms: _263  and  _264
REMARK  110  A    between atoms: _263  and  _266
REMARK  111  A    between atoms: _266  and  _267
REMARK  112  A    between atoms: _272  and  _274
REMARK  113  A    between atoms: _274  and  _275
REMARK  114  A    between atoms: _274  and  _277
REMARK  115  A    between atoms: _277  and  _278
REMARK  116  A    between atoms: _278  and  _279
REMARK  117  A    between atoms: _279  and  _280
REMARK  118  A    between atoms: _289  and  _291
REMARK  119  A    between atoms: _291  and  _292
REMARK  120  A    between atoms: _291  and  _294
REMARK  121  A    between atoms: _294  and  _295
REMARK  122  A    between atoms: _298  and  _300
REMARK  123  A    between atoms: _300  and  _301
REMARK  124  A    between atoms: _300  and  _303
REMARK  125  A    between atoms: _303  and  _304
REMARK  126  A    between atoms: _307  and  _309
REMARK  127  A    between atoms: _309  and  _310
REMARK  128  A    between atoms: _309  and  _312
REMARK  129  A    between atoms: _312  and  _313
REMARK  130  A    between atoms: _316  and  _318
REMARK  131  A    between atoms: _318  and  _319
REMARK  132  A    between atoms: _318  and  _321
REMARK  133  A    between atoms: _321  and  _322
REMARK  134  A    between atoms: _325  and  _327
REMARK  135  A    between atoms: _327  and  _328
REMARK  136  A    between atoms: _330  and  _332
REMARK  137  A    between atoms: _332  and  _333
REMARK  138  A    between atoms: _336  and  _338
REMARK  139  A    between atoms: _338  and  _339
REMARK  140  A    between atoms: _338  and  _341
REMARK  141  A    between atoms: _341  and  _342
REMARK  142  A    between atoms: _345  and  _347
REMARK  143  A    between atoms: _347  and  _348
REMARK  144  A    between atoms: _347  and  _350
REMARK  145  A    between atoms: _350  and  _351
REMARK  146  A    between atoms: _354  and  _356
REMARK  147  A    between atoms: _356  and  _357
REMARK  148  A    between atoms: _356  and  _359
REMARK  149  A    between atoms: _359  and  _360
REMARK  150  A    between atoms: _363  and  _365
REMARK  151  A    between atoms: _365  and  _366
REMARK  152  A    between atoms: _365  and  _368
REMARK  153  A    between atoms: _371  and  _373
REMARK  154  A    between atoms: _373  and  _374
REMARK  155  A    between atoms: _373  and  _376
REMARK  156  A    between atoms: _376  and  _377
REMARK  157  A    between atoms: _380  and  _382
REMARK  158  A    between atoms: _382  and  _383
REMARK  159  A    between atoms: _382  and  _385
REMARK  160  A    between atoms: _385  and  _386
REMARK  161  A    between atoms: _386  and  _387
REMARK  162  A    between atoms: _387  and  _388
REMARK  163  A    between atoms: _388  and  _389
REMARK  164  A    between atoms: _393  and  _395
REMARK  165  A    between atoms: _395  and  _396
REMARK  166  A    between atoms: _395  and  _398
REMARK  167  A    between atoms: _398  and  _399
REMARK  168  A    between atoms: _399  and  _400
REMARK  169  A    between atoms: _402  and  _404
REMARK  170  A    between atoms: _404  and  _405
REMARK  171  A    between atoms: _404  and  _407
REMARK  172  A    between atoms: _407  and  _408
REMARK  173  A    between atoms: _411  and  _413
REMARK  174  A    between atoms: _413  and  _414
REMARK  175  A    between atoms: _413  and  _416
REMARK  176  A    between atoms: _419  and  _421
REMARK  177  A    between atoms: _421  and  _422
REMARK  178  A    between atoms: _424  and  _426
REMARK  179  A    between atoms: _426  and  _427
REMARK  180  A    between atoms: _426  and  _429
REMARK  181  A    between atoms: _429  and  _430
REMARK  182  A    between atoms: _433  and  _435
REMARK  183  A    between atoms: _435  and  _436
REMARK  184  A    between atoms: _438  and  _440
REMARK  185  A    between atoms: _440  and  _441
REMARK  186  A    between atoms: _443  and  _445
REMARK  187  A    between atoms: _445  and  _446
REMARK  188  A    between atoms: _445  and  _448
REMARK  189  A    between atoms: _451  and  _453
REMARK  190  A    between atoms: _453  and  _454
REMARK  191  A    between atoms: _453  and  _456
REMARK  192  A    between atoms: _459  and  _461
REMARK  193  A    between atoms: _461  and  _462
REMARK  194  A    between atoms: _461  and  _464
REMARK  195  A    between atoms: _464  and  _465
REMARK  196  A    between atoms: _469  and  _470
REMARK  197  A    between atoms: _475  and  _477
REMARK  198  A    between atoms: _477  and  _478
REMARK  199  A    between atoms: _477  and  _480
REMARK  200  A    between atoms: _480  and  _481
REMARK  201  A    between atoms: _485  and  _486
REMARK  202  A    between atoms: _491  and  _493
REMARK  203  A    between atoms: _493  and  _494
REMARK  204  A    between atoms: _497  and  _499
REMARK  205  A    between atoms: _499  and  _500
REMARK  206  A    between atoms: _499  and  _502
REMARK  207  A    between atoms: _502  and  _503
REMARK  208  A    between atoms: _508  and  _510
REMARK  209  A    between atoms: _510  and  _511
REMARK  210  A    between atoms: _510  and  _513
REMARK  211  A    between atoms: _513  and  _514
REMARK  212  A    between atoms: _517  and  _519
REMARK  213  A    between atoms: _519  and  _520
REMARK  214  A    between atoms: _519  and  _522
REMARK  215  A    between atoms: _522  and  _523
REMARK  216  A    between atoms: _526  and  _528
REMARK  217  A    between atoms: _528  and  _529
REMARK  218  A    between atoms: _531  and  _533
REMARK  219  A    between atoms: _533  and  _534
REMARK  220  A    between atoms: _533  and  _536
REMARK  221  A    between atoms: _536  and  _537
REMARK  222  A    between atoms: _537  and  _538
REMARK  223  A    between atoms: _538  and  _539
REMARK  224  A    between atoms: _548  and  _550
REMARK  225  A    between atoms: _550  and  _551
REMARK  226  A    between atoms: _550  and  _553
REMARK  227  A    between atoms: _553  and  _554
REMARK                            x       y       z     vdW  Elec       q    Type
REMARK                         _______ _______ _______ _____ _____    ______ ____
ROOT
ATOM      1  O   HOH     1      25.863  48.159  -7.464  0.00  0.00    +0.000 OA
ENDROOT
TORSDOF 0
REMARK  Name = ../refined-set-2016/3ekt/3ekt_pocket.pdb
REMARK  227 active torsions:
REMARK  status: ('A' for Active; 'I' for Inactive)
REMARK    1  A    between atoms: _1  and  _3
REMARK    2  A    between atoms: _3  and  _4
REMARK    3  A    between atoms: _3  and  _6
REMARK    4  A    between atoms: _6  and  _7
REMARK    5  A    between atoms: _7  and  _8
REMARK    6  A    between atoms: _8  and  _9
REMARK    7  A    between atoms: _18  and  _20
REMARK    8  A    between atoms: _20  and  _21
REMARK    9  A    between atoms: _20  and  _23
REMARK   10  A    between atoms: _23  and  _24
REMARK   11  A    between atoms: _27  and  _29
REMARK   12  A    between atoms: _29  and  _30
REMARK   13  A    between atoms: _29  and  _32
REMARK   14  A    between atoms: _32  and  _33
REMARK   15  A    between atoms: _36  and  _38
REMARK   16  A    between atoms: _38  and  _39
REMARK   17  A    between atoms: _38  and  _41
REMARK   18  A    between atoms: _41  and  _42
REMARK   19  A    between atoms: _45  and  _47
REMARK   20  A    between atoms: _47  and  _48
REMARK   21  A    between atoms: _47  and  _50
REMARK   22  A    between atoms: _50  and  _51
REMARK   23  A    between atoms: _54  and  _56
REMARK   24  A    between atoms: _56  and  _57
REMARK   25  A    between atoms: _59  and  _61
REMARK   26  A    between atoms: _61  and  _62
REMARK   27  A    between atoms: _65  and  _67
REMARK   28  A    between atoms: _67  and  _68
REMARK   29  A    between atoms: _67  and  _70
REMARK   30  A    between atoms: _70  and  _71
REMARK   31  A    between atoms: _74  and  _76
REMARK   32  A    between atoms: _76  and  _77
REMARK   33  A    between atoms: _76  and  _79
REMARK   34  A    between atoms: _79  and  _80
REMARK   35  A    between atoms: _83  and  _85
REMARK   36  A    between atoms: _85  and  _86
REMARK   37  A    between atoms: _85  and  _88
REMARK   38  A    between atoms: _88  and  _89
REMARK   39  A    between atoms: _92  and  _94
REMARK   40  A    between atoms: _94  and  _95
REMARK   41  A    between atoms: _94  and  _97
REMARK   42  A    between atoms: _100  and  _102
REMARK   43  A    between atoms: _102  and  _103
REMARK   44  A    between atoms: _102  and  _105
REMARK   45  A    between atoms: _105  and  _106
REMARK   46  A    between atoms: _106  and  _107
REMARK   47  A    between atoms: _107  and  _108
REMARK   48  A    between atoms: _108  and  _109
REMARK   49  A    between atoms: _113  and  _115
REMARK   50  A    between atoms: _115  and  _116
REMARK   51  A    between atoms: _115  and  _118
REMARK   52  A    between atoms: _118  and  _119
REMARK   53  A    between atoms: _119  and  _120
REMARK   54  A    between atoms: _122  and  _124
REMARK   55  A    between atoms: _124  and  _125
REMARK   56  A    between atoms: _124  and  _127
REMARK   57  A    between atoms: _127  and  _128
REMARK   58  A    between atoms: _131  and  _133
REMARK   59  A    between atoms: _133  and  _134
REMARK   60  A    between atoms: _133  and  _136
REMARK   61  A    between atoms: _139  and  _141
REMARK   62  A    between atoms: _141  and  _142
REMARK   63  A    between atoms: _144  and  _146
REMARK   64  A    between atoms: _146  and  _147
REMARK   65  A    between atoms: _146  and  _149
REMARK   66  A    between atoms: _149  and  _150
REMARK   67  A    between atoms: _153  and  _155
REMARK   68  A    between atoms: _155  and  _156
REMARK   69  A    between atoms: _158  and  _160
REMARK   70  A    between atoms: _160  and  _161
REMARK   71  A    between atoms: _163  and  _165
REMARK   72  A    between atoms: _165  and  _166
REMARK   73  A    between atoms: _165  and  _168
REMARK   74  A    between atoms: _171  and  _173
REMARK   75  A    between atoms: _173  and  _174
REMARK   76  A    between atoms: _173  and  _176
REMARK   77  A    between atoms: _179  and  _181
REMARK   78  A    between atoms: _181  and  _182
REMARK   79  A    between atoms: _181  and  _184
REMARK   80  A    between atoms: _184  and  _185
REMARK   81  A    between atoms: _188  and  _190
REMARK   82  A    between atoms: _190  and  _191
REMARK   83  A    between atoms: _190  and  _193
REMARK   84  A    between atoms: _193  and  _194
REMARK   85  A    between atoms: _198  and  _199
REMARK   86  A    between atoms: _204  and  _206
REMARK   87  A    between atoms: _206  and  _207
REMARK   88  A    between atoms: _210  and  _212
REMARK   89  A    between atoms: _212  and  _213
REMARK   90  A    between atoms: _212  and  _215
REMARK   91  A    between atoms: _215  and  _216
REMARK   92  A    between atoms: _221  and  _223
REMARK   93  A    between atoms: _223  and  _224
REMARK   94  A    between atoms: _223  and  _226
REMARK   95  A    between atoms: _226  and  _227
REMARK   96  A    between atoms: _230  and  _232
REMARK   97  A    between atoms: _232  and  _233
REMARK   98  A    between atoms: _232  and  _235
REMARK   99  A    between atoms: _235  and  _236
REMARK  100  A    between atoms: _239  and  _241
REMARK  101  A    between atoms: _241  and  _242
REMARK  102  A    between atoms: _244  and  _246
REMARK  103  A    between atoms: _246  and  _247
REMARK  104  A    between atoms: _246  and  _249
REMARK  105  A    between atoms: _249  and  _250
REMARK  106  A    between atoms: _250  and  _251
REMARK  107  A    between atoms: _251  and  _252
REMARK  108  A    between atoms: _261  and  _263
REMARK  109  A    between atoms: _263  and  _264
REMARK  110  A    between atoms: _263  and  _266
REMARK  111  A    between atoms: _266  and  _267
REMARK  112  A    between atoms: _272  and  _274
REMARK  113  A    between atoms: _274  and  _275
REMARK  114  A    between atoms: _274  and  _277
REMARK  115  A    between atoms: _277  and  _278
REMARK  116  A    between atoms: _278  and  _279
REMARK  117  A    between atoms: _279  and  _280
REMARK  118  A    between atoms: _289  and  _291
REMARK  119  A    between atoms: _291  and  _292
REMARK  120  A    between atoms: _291  and  _294
REMARK  121  A    between atoms: _294  and  _295
REMARK  122  A    between atoms: _298  and  _300
REMARK  123  A    between atoms: _300  and  _301
REMARK  124  A    between atoms: _300  and  _303
REMARK  125  A    between atoms: _303  and  _304
REMARK  126  A    between atoms: _307  and  _309
REMARK  127  A    between atoms: _309  and  _310
REMARK  128  A    between atoms: _309  and  _312
REMARK  129  A    between atoms: _312  and  _313
REMARK  130  A    between atoms: _316  and  _318
REMARK  131  A    between atoms: _318  and  _319
REMARK  132  A    between atoms: _318  and  _321
REMARK  133  A    between atoms: _321  and  _322
REMARK  134  A    between atoms: _325  and  _327
REMARK  135  A    between atoms: _327  and  _328
REMARK  136  A    between atoms: _330  and  _332
REMARK  137  A    between atoms: _332  and  _333
REMARK  138  A    between atoms: _336  and  _338
REMARK  139  A    between atoms: _338  and  _339
REMARK  140  A    between atoms: _338  and  _341
REMARK  141  A    between atoms: _341  and  _342
REMARK  142  A    between atoms: _345  and  _347
REMARK  143  A    between atoms: _347  and  _348
REMARK  144  A    between atoms: _347  and  _350
REMARK  145  A    between atoms: _350  and  _351
REMARK  146  A    between atoms: _354  and  _356
REMARK  147  A    between atoms: _356  and  _357
REMARK  148  A    between atoms: _356  and  _359
REMARK  149  A    between atoms: _359  and  _360
REMARK  150  A    between atoms: _363  and  _365
REMARK  151  A    between atoms: _365  and  _366
REMARK  152  A    between atoms: _365  and  _368
REMARK  153  A    between atoms: _371  and  _373
REMARK  154  A    between atoms: _373  and  _374
REMARK  155  A    between atoms: _373  and  _376
REMARK  156  A    between atoms: _376  and  _377
REMARK  157  A    between atoms: _380  and  _382
REMARK  158  A    between atoms: _382  and  _383
REMARK  159  A    between atoms: _382  and  _385
REMARK  160  A    between atoms: _385  and  _386
REMARK  161  A    between atoms: _386  and  _387
REMARK  162  A    between atoms: _387  and  _388
REMARK  163  A    between atoms: _388  and  _389
REMARK  164  A    between atoms: _393  and  _395
REMARK  165  A    between atoms: _395  and  _396
REMARK  166  A    between atoms: _395  and  _398
REMARK  167  A    between atoms: _398  and  _399
REMARK  168  A    between atoms: _399  and  _400
REMARK  169  A    between atoms: _402  and  _404
REMARK  170  A    between atoms: _404  and  _405
REMARK  171  A    between atoms: _404  and  _407
REMARK  172  A    between atoms: _407  and  _408
REMARK  173  A    between atoms: _411  and  _413
REMARK  174  A    between atoms: _413  and  _414
REMARK  175  A    between atoms: _413  and  _416
REMARK  176  A    between atoms: _419  and  _421
REMARK  177  A    between atoms: _421  and  _422
REMARK  178  A    between atoms: _424  and  _426
REMARK  179  A    between atoms: _426  and  _427
REMARK  180  A    between atoms: _426  and  _429
REMARK  181  A    between atoms: _429  and  _430
REMARK  182  A    between atoms: _433  and  _435
REMARK  183  A    between atoms: _435  and  _436
REMARK  184  A    between atoms: _438  and  _440
REMARK  185  A    between atoms: _440  and  _441
REMARK  186  A    between atoms: _443  and  _445
REMARK  187  A    between atoms: _445  and  _446
REMARK  188  A    between atoms: _445  and  _448
REMARK  189  A    between atoms: _451  and  _453
REMARK  190  A    between atoms: _453  and  _454
REMARK  191  A    between atoms: _453  and  _456
REMARK  192  A    between atoms: _459  and  _461
REMARK  193  A    between atoms: _461  and  _462
REMARK  194  A    between atoms: _461  and  _464
REMARK  195  A    between atoms: _464  and  _465
REMARK  196  A    between atoms: _469  and  _470
REMARK  197  A    between atoms: _475  and  _477
REMARK  198  A    between atoms: _477  and  _478
REMARK  199  A    between atoms: _477  and  _480
REMARK  200  A    between atoms: _480  and  _481
REMARK  201  A    between atoms: _485  and  _486
REMARK  202  A    between atoms: _491  and  _493
REMARK  203  A    between atoms: _493  and  _494
REMARK  204  A    between atoms: _497  and  _499
REMARK  205  A    between atoms: _499  and  _500
REMARK  206  A    between atoms: _499  and  _502
REMARK  207  A    between atoms: _502  and  _503
REMARK  208  A    between atoms: _508  and  _510
REMARK  209  A    between atoms: _510  and  _511
REMARK  210  A    between atoms: _510  and  _513
REMARK  211  A    between atoms: _513  and  _514
REMARK  212  A    between atoms: _517  and  _519
REMARK  213  A    between atoms: _519  and  _520
REMARK  214  A    between atoms: _519  and  _522
REMARK  215  A    between atoms: _522  and  _523
REMARK  216  A    between atoms: _526  and  _528
REMARK  217  A    between atoms: _528  and  _529
REMARK  218  A    between atoms: _531  and  _533
REMARK  219  A    between atoms: _533  and  _534
REMARK  220  A    between atoms: _533  and  _536
REMARK  221  A    between atoms: _536  and  _537
REMARK  222  A    between atoms: _537  and  _538
REMARK  223  A    between atoms: _538  and  _539
REMARK  224  A    between atoms: _548  and  _550
REMARK  225  A    between atoms: _550  and  _551
REMARK  226  A    between atoms: _550  and  _553
REMARK  227  A    between atoms: _553  and  _554
REMARK                            x       y       z     vdW  Elec       q    Type
REMARK                         _______ _______ _______ _____ _____    ______ ____
ROOT
ATOM      1  O   HOH     1      19.314  48.949  -5.029  0.00  0.00    +0.000 OA
ENDROOT
TORSDOF 0
REMARK  Name = ../refined-set-2016/3ekt/3ekt_pocket.pdb
REMARK  227 active torsions:
REMARK  status: ('A' for Active; 'I' for Inactive)
REMARK    1  A    between atoms: _1  and  _3
REMARK    2  A    between atoms: _3  and  _4
REMARK    3  A    between atoms: _3  and  _6
REMARK    4  A    between atoms: _6  and  _7
REMARK    5  A    between atoms: _7  and  _8
REMARK    6  A    between atoms: _8  and  _9
REMARK    7  A    between atoms: _18  and  _20
REMARK    8  A    between atoms: _20  and  _21
REMARK    9  A    between atoms: _20  and  _23
REMARK   10  A    between atoms: _23  and  _24
REMARK   11  A    between atoms: _27  and  _29
REMARK   12  A    between atoms: _29  and  _30
REMARK   13  A    between atoms: _29  and  _32
REMARK   14  A    between atoms: _32  and  _33
REMARK   15  A    between atoms: _36  and  _38
REMARK   16  A    between atoms: _38  and  _39
REMARK   17  A    between atoms: _38  and  _41
REMARK   18  A    between atoms: _41  and  _42
REMARK   19  A    between atoms: _45  and  _47
REMARK   20  A    between atoms: _47  and  _48
REMARK   21  A    between atoms: _47  and  _50
REMARK   22  A    between atoms: _50  and  _51
REMARK   23  A    between atoms: _54  and  _56
REMARK   24  A    between atoms: _56  and  _57
REMARK   25  A    between atoms: _59  and  _61
REMARK   26  A    between atoms: _61  and  _62
REMARK   27  A    between atoms: _65  and  _67
REMARK   28  A    between atoms: _67  and  _68
REMARK   29  A    between atoms: _67  and  _70
REMARK   30  A    between atoms: _70  and  _71
REMARK   31  A    between atoms: _74  and  _76
REMARK   32  A    between atoms: _76  and  _77
REMARK   33  A    between atoms: _76  and  _79
REMARK   34  A    between atoms: _79  and  _80
REMARK   35  A    between atoms: _83  and  _85
REMARK   36  A    between atoms: _85  and  _86
REMARK   37  A    between atoms: _85  and  _88
REMARK   38  A    between atoms: _88  and  _89
REMARK   39  A    between atoms: _92  and  _94
REMARK   40  A    between atoms: _94  and  _95
REMARK   41  A    between atoms: _94  and  _97
REMARK   42  A    between atoms: _100  and  _102
REMARK   43  A    between atoms: _102  and  _103
REMARK   44  A    between atoms: _102  and  _105
REMARK   45  A    between atoms: _105  and  _106
REMARK   46  A    between atoms: _106  and  _107
REMARK   47  A    between atoms: _107  and  _108
REMARK   48  A    between atoms: _108  and  _109
REMARK   49  A    between atoms: _113  and  _115
REMARK   50  A    between atoms: _115  and  _116
REMARK   51  A    between atoms: _115  and  _118
REMARK   52  A    between atoms: _118  and  _119
REMARK   53  A    between atoms: _119  and  _120
REMARK   54  A    between atoms: _122  and  _124
REMARK   55  A    between atoms: _124  and  _125
REMARK   56  A    between atoms: _124  and  _127
REMARK   57  A    between atoms: _127  and  _128
REMARK   58  A    between atoms: _131  and  _133
REMARK   59  A    between atoms: _133  and  _134
REMARK   60  A    between atoms: _133  and  _136
REMARK   61  A    between atoms: _139  and  _141
REMARK   62  A    between atoms: _141  and  _142
REMARK   63  A    between atoms: _144  and  _146
REMARK   64  A    between atoms: _146  and  _147
REMARK   65  A    between atoms: _146  and  _149
REMARK   66  A    between atoms: _149  and  _150
REMARK   67  A    between atoms: _153  and  _155
REMARK   68  A    between atoms: _155  and  _156
REMARK   69  A    between atoms: _158  and  _160
REMARK   70  A    between atoms: _160  and  _161
REMARK   71  A    between atoms: _163  and  _165
REMARK   72  A    between atoms: _165  and  _166
REMARK   73  A    between atoms: _165  and  _168
REMARK   74  A    between atoms: _171  and  _173
REMARK   75  A    between atoms: _173  and  _174
REMARK   76  A    between atoms: _173  and  _176
REMARK   77  A    between atoms: _179  and  _181
REMARK   78  A    between atoms: _181  and  _182
REMARK   79  A    between atoms: _181  and  _184
REMARK   80  A    between atoms: _184  and  _185
REMARK   81  A    between atoms: _188  and  _190
REMARK   82  A    between atoms: _190  and  _191
REMARK   83  A    between atoms: _190  and  _193
REMARK   84  A    between atoms: _193  and  _194
REMARK   85  A    between atoms: _198  and  _199
REMARK   86  A    between atoms: _204  and  _206
REMARK   87  A    between atoms: _206  and  _207
REMARK   88  A    between atoms: _210  and  _212
REMARK   89  A    between atoms: _212  and  _213
REMARK   90  A    between atoms: _212  and  _215
REMARK   91  A    between atoms: _215  and  _216
REMARK   92  A    between atoms: _221  and  _223
REMARK   93  A    between atoms: _223  and  _224
REMARK   94  A    between atoms: _223  and  _226
REMARK   95  A    between atoms: _226  and  _227
REMARK   96  A    between atoms: _230  and  _232
REMARK   97  A    between atoms: _232  and  _233
REMARK   98  A    between atoms: _232  and  _235
REMARK   99  A    between atoms: _235  and  _236
REMARK  100  A    between atoms: _239  and  _241
REMARK  101  A    between atoms: _241  and  _242
REMARK  102  A    between atoms: _244  and  _246
REMARK  103  A    between atoms: _246  and  _247
REMARK  104  A    between atoms: _246  and  _249
REMARK  105  A    between atoms: _249  and  _250
REMARK  106  A    between atoms: _250  and  _251
REMARK  107  A    between atoms: _251  and  _252
REMARK  108  A    between atoms: _261  and  _263
REMARK  109  A    between atoms: _263  and  _264
REMARK  110  A    between atoms: _263  and  _266
REMARK  111  A    between atoms: _266  and  _267
REMARK  112  A    between atoms: _272  and  _274
REMARK  113  A    between atoms: _274  and  _275
REMARK  114  A    between atoms: _274  and  _277
REMARK  115  A    between atoms: _277  and  _278
REMARK  116  A    between atoms: _278  and  _279
REMARK  117  A    between atoms: _279  and  _280
REMARK  118  A    between atoms: _289  and  _291
REMARK  119  A    between atoms: _291  and  _292
REMARK  120  A    between atoms: _291  and  _294
REMARK  121  A    between atoms: _294  and  _295
REMARK  122  A    between atoms: _298  and  _300
REMARK  123  A    between atoms: _300  and  _301
REMARK  124  A    between atoms: _300  and  _303
REMARK  125  A    between atoms: _303  and  _304
REMARK  126  A    between atoms: _307  and  _309
REMARK  127  A    between atoms: _309  and  _310
REMARK  128  A    between atoms: _309  and  _312
REMARK  129  A    between atoms: _312  and  _313
REMARK  130  A    between atoms: _316  and  _318
REMARK  131  A    between atoms: _318  and  _319
REMARK  132  A    between atoms: _318  and  _321
REMARK  133  A    between atoms: _321  and  _322
REMARK  134  A    between atoms: _325  and  _327
REMARK  135  A    between atoms: _327  and  _328
REMARK  136  A    between atoms: _330  and  _332
REMARK  137  A    between atoms: _332  and  _333
REMARK  138  A    between atoms: _336  and  _338
REMARK  139  A    between atoms: _338  and  _339
REMARK  140  A    between atoms: _338  and  _341
REMARK  141  A    between atoms: _341  and  _342
REMARK  142  A    between atoms: _345  and  _347
REMARK  143  A    between atoms: _347  and  _348
REMARK  144  A    between atoms: _347  and  _350
REMARK  145  A    between atoms: _350  and  _351
REMARK  146  A    between atoms: _354  and  _356
REMARK  147  A    between atoms: _356  and  _357
REMARK  148  A    between atoms: _356  and  _359
REMARK  149  A    between atoms: _359  and  _360
REMARK  150  A    between atoms: _363  and  _365
REMARK  151  A    between atoms: _365  and  _366
REMARK  152  A    between atoms: _365  and  _368
REMARK  153  A    between atoms: _371  and  _373
REMARK  154  A    between atoms: _373  and  _374
REMARK  155  A    between atoms: _373  and  _376
REMARK  156  A    between atoms: _376  and  _377
REMARK  157  A    between atoms: _380  and  _382
REMARK  158  A    between atoms: _382  and  _383
REMARK  159  A    between atoms: _382  and  _385
REMARK  160  A    between atoms: _385  and  _386
REMARK  161  A    between atoms: _386  and  _387
REMARK  162  A    between atoms: _387  and  _388
REMARK  163  A    between atoms: _388  and  _389
REMARK  164  A    between atoms: _393  and  _395
REMARK  165  A    between atoms: _395  and  _396
REMARK  166  A    between atoms: _395  and  _398
REMARK  167  A    between atoms: _398  and  _399
REMARK  168  A    between atoms: _399  and  _400
REMARK  169  A    between atoms: _402  and  _404
REMARK  170  A    between atoms: _404  and  _405
REMARK  171  A    between atoms: _404  and  _407
REMARK  172  A    between atoms: _407  and  _408
REMARK  173  A    between atoms: _411  and  _413
REMARK  174  A    between atoms: _413  and  _414
REMARK  175  A    between atoms: _413  and  _416
REMARK  176  A    between atoms: _419  and  _421
REMARK  177  A    between atoms: _421  and  _422
REMARK  178  A    between atoms: _424  and  _426
REMARK  179  A    between atoms: _426  and  _427
REMARK  180  A    between atoms: _426  and  _429
REMARK  181  A    between atoms: _429  and  _430
REMARK  182  A    between atoms: _433  and  _435
REMARK  183  A    between atoms: _435  and  _436
REMARK  184  A    between atoms: _438  and  _440
REMARK  185  A    between atoms: _440  and  _441
REMARK  186  A    between atoms: _443  and  _445
REMARK  187  A    between atoms: _445  and  _446
REMARK  188  A    between atoms: _445  and  _448
REMARK  189  A    between atoms: _451  and  _453
REMARK  190  A    between atoms: _453  and  _454
REMARK  191  A    between atoms: _453  and  _456
REMARK  192  A    between atoms: _459  and  _461
REMARK  193  A    between atoms: _461  and  _462
REMARK  194  A    between atoms: _461  and  _464
REMARK  195  A    between atoms: _464  and  _465
REMARK  196  A    between atoms: _469  and  _470
REMARK  197  A    between atoms: _475  and  _477
REMARK  198  A    between atoms: _477  and  _478
REMARK  199  A    between atoms: _477  and  _480
REMARK  200  A    between atoms: _480  and  _481
REMARK  201  A    between atoms: _485  and  _486
REMARK  202  A    between atoms: _491  and  _493
REMARK  203  A    between atoms: _493  and  _494
REMARK  204  A    between atoms: _497  and  _499
REMARK  205  A    between atoms: _499  and  _500
REMARK  206  A    between atoms: _499  and  _502
REMARK  207  A    between atoms: _502  and  _503
REMARK  208  A    between atoms: _508  and  _510
REMARK  209  A    between atoms: _510  and  _511
REMARK  210  A    between atoms: _510  and  _513
REMARK  211  A    between atoms: _513  and  _514
REMARK  212  A    between atoms: _517  and  _519
REMARK  213  A    between atoms: _519  and  _520
REMARK  214  A    between atoms: _519  and  _522
REMARK  215  A    between atoms: _522  and  _523
REMARK  216  A    between atoms: _526  and  _528
REMARK  217  A    between atoms: _528  and  _529
REMARK  218  A    between atoms: _531  and  _533
REMARK  219  A    between atoms: _533  and  _534
REMARK  220  A    between atoms: _533  and  _536
REMARK  221  A    between atoms: _536  and  _537
REMARK  222  A    between atoms: _537  and  _538
REMARK  223  A    between atoms: _538  and  _539
REMARK  224  A    between atoms: _548  and  _550
REMARK  225  A    between atoms: _550  and  _551
REMARK  226  A    between atoms: _550  and  _553
REMARK  227  A    between atoms: _553  and  _554
REMARK                            x       y       z     vdW  Elec       q    Type
REMARK                         _______ _______ _______ _____ _____    ______ ____
ROOT
ATOM      1  O   HOH     1      13.368  30.920 -13.303  0.00  0.00    +0.000 OA
ENDROOT
TORSDOF 0
