REMARK  Name = ../refined-set-2016/4agp/4agp_pocket.pdb
REMARK  101 active torsions:
REMARK  status: ('A' for Active; 'I' for Inactive)
REMARK    1  A    between atoms: _1  and  _3
REMARK    2  A    between atoms: _3  and  _4
REMARK    3  A    between atoms: _3  and  _6
REMARK    4  A    between atoms: _6  and  _7
REMARK    5  A    between atoms: _12  and  _13
REMARK    6  A    between atoms: _15  and  _17
REMARK    7  A    between atoms: _17  and  _18
REMARK    8  A    between atoms: _17  and  _20
REMARK    9  A    between atoms: _20  and  _21
REMARK   10  A    between atoms: _27  and  _29
REMARK   11  A    between atoms: _29  and  _30
REMARK   12  A    between atoms: _29  and  _32
REMARK   13  A    between atoms: _32  and  _33
REMARK   14  A    between atoms: _33  and  _34
REMARK   15  A    between atoms: _34  and  _35
REMARK   16  A    between atoms: _44  and  _46
REMARK   17  A    between atoms: _46  and  _47
REMARK   18  A    between atoms: _46  and  _49
REMARK   19  A    between atoms: _49  and  _50
REMARK   20  A    between atoms: _50  and  _51
REMARK   21  A    between atoms: _56  and  _58
REMARK   22  A    between atoms: _58  and  _59
REMARK   23  A    between atoms: _58  and  _61
REMARK   24  A    between atoms: _61  and  _62
REMARK   25  A    between atoms: _65  and  _67
REMARK   26  A    between atoms: _67  and  _68
REMARK   27  A    between atoms: _67  and  _70
REMARK   28  A    between atoms: _70  and  _71
REMARK   29  A    between atoms: _81  and  _83
REMARK   30  A    between atoms: _83  and  _84
REMARK   31  A    between atoms: _83  and  _86
REMARK   32  A    between atoms: _89  and  _91
REMARK   33  A    between atoms: _91  and  _92
REMARK   34  A    between atoms: _91  and  _94
REMARK   35  A    between atoms: _94  and  _95
REMARK   36  A    between atoms: _98  and  _100
REMARK   37  A    between atoms: _100  and  _101
REMARK   38  A    between atoms: _100  and  _103
REMARK   39  A    between atoms: _103  and  _104
REMARK   40  A    between atoms: _106  and  _108
REMARK   41  A    between atoms: _108  and  _109
REMARK   42  A    between atoms: _108  and  _111
REMARK   43  A    between atoms: _111  and  _112
REMARK   44  A    between atoms: _116  and  _117
REMARK   45  A    between atoms: _123  and  _124
REMARK   46  A    between atoms: _130  and  _131
REMARK   47  A    between atoms: _136  and  _138
REMARK   48  A    between atoms: _138  and  _139
REMARK   49  A    between atoms: _141  and  _143
REMARK   50  A    between atoms: _143  and  _144
REMARK   51  A    between atoms: _143  and  _146
REMARK   52  A    between atoms: _146  and  _147
REMARK   53  A    between atoms: _150  and  _152
REMARK   54  A    between atoms: _152  and  _153
REMARK   55  A    between atoms: _152  and  _155
REMARK   56  A    between atoms: _155  and  _156
REMARK   57  A    between atoms: _156  and  _157
REMARK   58  A    between atoms: _157  and  _158
REMARK   59  A    between atoms: _167  and  _169
REMARK   60  A    between atoms: _169  and  _170
REMARK   61  A    between atoms: _169  and  _172
REMARK   62  A    between atoms: _175  and  _177
REMARK   63  A    between atoms: _177  and  _178
REMARK   64  A    between atoms: _177  and  _180
REMARK   65  A    between atoms: _180  and  _181
REMARK   66  A    between atoms: _181  and  _182
REMARK   67  A    between atoms: _182  and  _183
REMARK   68  A    between atoms: _193  and  _194
REMARK   69  A    between atoms: _199  and  _201
REMARK   70  A    between atoms: _201  and  _202
REMARK   71  A    between atoms: _201  and  _204
REMARK   72  A    between atoms: _206  and  _208
REMARK   73  A    between atoms: _208  and  _209
REMARK   74  A    between atoms: _208  and  _211
REMARK   75  A    between atoms: _211  and  _212
REMARK   76  A    between atoms: _212  and  _213
REMARK   77  A    between atoms: _217  and  _218
REMARK   78  A    between atoms: _224  and  _225
REMARK   79  A    between atoms: _230  and  _232
REMARK   80  A    between atoms: _232  and  _233
REMARK   81  A    between atoms: _232  and  _235
REMARK   82  A    between atoms: _235  and  _236
REMARK   83  A    between atoms: _238  and  _240
REMARK   84  A    between atoms: _240  and  _241
REMARK   85  A    between atoms: _240  and  _243
REMARK   86  A    between atoms: _243  and  _244
REMARK   87  A    between atoms: _247  and  _249
REMARK   88  A    between atoms: _249  and  _250
REMARK   89  A    between atoms: _249  and  _252
REMARK   90  A    between atoms: _254  and  _256
REMARK   91  A    between atoms: _256  and  _257
REMARK   92  A    between atoms: _256  and  _259
REMARK   93  A    between atoms: _259  and  _260
REMARK   94  A    between atoms: _263  and  _265
REMARK   95  A    between atoms: _265  and  _266
REMARK   96  A    between atoms: _265  and  _268
REMARK   97  A    between atoms: _268  and  _269
REMARK   98  A    between atoms: _272  and  _274
REMARK   99  A    between atoms: _274  and  _275
REMARK  100  A    between atoms: _274  and  _277
REMARK  101  A    between atoms: _277  and  _278
REMARK                            x       y       z     vdW  Elec       q    Type
REMARK                         _______ _______ _______ _____ _____    ______ ____
ROOT
ATOM      1  CG  TYR A   1      99.757  94.992 -47.122  0.00  0.00    -0.020 A 
ATOM      2  CD2 TYR A   1     100.505  93.842 -47.325  0.00  0.00    -0.001 A 
ATOM      3  CE2 TYR A   1     100.702  93.332 -48.609  0.00  0.00    +0.036 A 
ATOM      4  CZ  TYR A   1     100.156  93.994 -49.679  0.00  0.00    +0.134 A 
ATOM      5  CE1 TYR A   1      99.425  95.147 -49.498  0.00  0.00    +0.036 A 
ATOM      6  CD1 TYR A   1      99.229  95.637 -48.225  0.00  0.00    -0.001 A 
ENDROOT
BRANCH   4   7
ATOM      7  OH  TYR A   1     100.349  93.506 -50.957  0.00  0.00    -0.506 OA
ATOM      8  HH  TYR A   1     101.318  93.481 -51.156  0.00  0.00    +0.292 HD
ENDBRANCH   4   7
BRANCH   1   9
ATOM      9  CB  TYR A   1      99.566  95.559 -45.738  0.00  0.00    +0.051 C 
BRANCH   9  10
ATOM     10  CA  TYR A   1     100.442  96.806 -45.530  0.00  0.00    +0.137 C 
BRANCH  10  11
ATOM     11  N   TYR A   1     101.838  96.512 -45.828  0.00  0.00    -0.239 NA
ATOM     12  H   TYR A   1     102.278  95.655 -45.437  0.00  0.00    +0.142 HD
ENDBRANCH  10  11
BRANCH  10  13
ATOM     13  C   TYR A   1     100.224  97.431 -44.161  0.00  0.00    +0.224 C 
ATOM     14  O   TYR A   1      99.094  97.727 -43.807  0.00  0.00    -0.287 OA
ENDBRANCH  10  13
ENDBRANCH   9  10
ENDBRANCH   1   9
TORSDOF 5
REMARK  Name = ../refined-set-2016/4agp/4agp_pocket.pdb
REMARK  101 active torsions:
REMARK  status: ('A' for Active; 'I' for Inactive)
REMARK    1  A    between atoms: _1  and  _3
REMARK    2  A    between atoms: _3  and  _4
REMARK    3  A    between atoms: _3  and  _6
REMARK    4  A    between atoms: _6  and  _7
REMARK    5  A    between atoms: _12  and  _13
REMARK    6  A    between atoms: _15  and  _17
REMARK    7  A    between atoms: _17  and  _18
REMARK    8  A    between atoms: _17  and  _20
REMARK    9  A    between atoms: _20  and  _21
REMARK   10  A    between atoms: _27  and  _29
REMARK   11  A    between atoms: _29  and  _30
REMARK   12  A    between atoms: _29  and  _32
REMARK   13  A    between atoms: _32  and  _33
REMARK   14  A    between atoms: _33  and  _34
REMARK   15  A    between atoms: _34  and  _35
REMARK   16  A    between atoms: _44  and  _46
REMARK   17  A    between atoms: _46  and  _47
REMARK   18  A    between atoms: _46  and  _49
REMARK   19  A    between atoms: _49  and  _50
REMARK   20  A    between atoms: _50  and  _51
REMARK   21  A    between atoms: _56  and  _58
REMARK   22  A    between atoms: _58  and  _59
REMARK   23  A    between atoms: _58  and  _61
REMARK   24  A    between atoms: _61  and  _62
REMARK   25  A    between atoms: _65  and  _67
REMARK   26  A    between atoms: _67  and  _68
REMARK   27  A    between atoms: _67  and  _70
REMARK   28  A    between atoms: _70  and  _71
REMARK   29  A    between atoms: _81  and  _83
REMARK   30  A    between atoms: _83  and  _84
REMARK   31  A    between atoms: _83  and  _86
REMARK   32  A    between atoms: _89  and  _91
REMARK   33  A    between atoms: _91  and  _92
REMARK   34  A    between atoms: _91  and  _94
REMARK   35  A    between atoms: _94  and  _95
REMARK   36  A    between atoms: _98  and  _100
REMARK   37  A    between atoms: _100  and  _101
REMARK   38  A    between atoms: _100  and  _103
REMARK   39  A    between atoms: _103  and  _104
REMARK   40  A    between atoms: _106  and  _108
REMARK   41  A    between atoms: _108  and  _109
REMARK   42  A    between atoms: _108  and  _111
REMARK   43  A    between atoms: _111  and  _112
REMARK   44  A    between atoms: _116  and  _117
REMARK   45  A    between atoms: _123  and  _124
REMARK   46  A    between atoms: _130  and  _131
REMARK   47  A    between atoms: _136  and  _138
REMARK   48  A    between atoms: _138  and  _139
REMARK   49  A    between atoms: _141  and  _143
REMARK   50  A    between atoms: _143  and  _144
REMARK   51  A    between atoms: _143  and  _146
REMARK   52  A    between atoms: _146  and  _147
REMARK   53  A    between atoms: _150  and  _152
REMARK   54  A    between atoms: _152  and  _153
REMARK   55  A    between atoms: _152  and  _155
REMARK   56  A    between atoms: _155  and  _156
REMARK   57  A    between atoms: _156  and  _157
REMARK   58  A    between atoms: _157  and  _158
REMARK   59  A    between atoms: _167  and  _169
REMARK   60  A    between atoms: _169  and  _170
REMARK   61  A    between atoms: _169  and  _172
REMARK   62  A    between atoms: _175  and  _177
REMARK   63  A    between atoms: _177  and  _178
REMARK   64  A    between atoms: _177  and  _180
REMARK   65  A    between atoms: _180  and  _181
REMARK   66  A    between atoms: _181  and  _182
REMARK   67  A    between atoms: _182  and  _183
REMARK   68  A    between atoms: _193  and  _194
REMARK   69  A    between atoms: _199  and  _201
REMARK   70  A    between atoms: _201  and  _202
REMARK   71  A    between atoms: _201  and  _204
REMARK   72  A    between atoms: _206  and  _208
REMARK   73  A    between atoms: _208  and  _209
REMARK   74  A    between atoms: _208  and  _211
REMARK   75  A    between atoms: _211  and  _212
REMARK   76  A    between atoms: _212  and  _213
REMARK   77  A    between atoms: _217  and  _218
REMARK   78  A    between atoms: _224  and  _225
REMARK   79  A    between atoms: _230  and  _232
REMARK   80  A    between atoms: _232  and  _233
REMARK   81  A    between atoms: _232  and  _235
REMARK   82  A    between atoms: _235  and  _236
REMARK   83  A    between atoms: _238  and  _240
REMARK   84  A    between atoms: _240  and  _241
REMARK   85  A    between atoms: _240  and  _243
REMARK   86  A    between atoms: _243  and  _244
REMARK   87  A    between atoms: _247  and  _249
REMARK   88  A    between atoms: _249  and  _250
REMARK   89  A    between atoms: _249  and  _252
REMARK   90  A    between atoms: _254  and  _256
REMARK   91  A    between atoms: _256  and  _257
REMARK   92  A    between atoms: _256  and  _259
REMARK   93  A    between atoms: _259  and  _260
REMARK   94  A    between atoms: _263  and  _265
REMARK   95  A    between atoms: _265  and  _266
REMARK   96  A    between atoms: _265  and  _268
REMARK   97  A    between atoms: _268  and  _269
REMARK   98  A    between atoms: _272  and  _274
REMARK   99  A    between atoms: _274  and  _275
REMARK  100  A    between atoms: _274  and  _277
REMARK  101  A    between atoms: _277  and  _278
REMARK                            x       y       z     vdW  Elec       q    Type
REMARK                         _______ _______ _______ _____ _____    ______ ____
ROOT
ATOM      1  CA  ARG A   2      99.704  95.123 -36.508  0.00  0.00    +0.137 C 
ENDROOT
BRANCH   1   3
ATOM      2  C   PHE A   1     100.459  95.224 -38.821  0.00  0.00    +0.239 C 
ATOM      3  N   ARG A   2      99.456  95.225 -37.946  0.00  0.00    -0.298 N 
ATOM      4  H   ARG A   2      98.478  95.300 -38.291  0.00  0.00    +0.150 HD
ATOM      5  O   PHE A   1     101.640  95.279 -38.479  0.00  0.00    -0.274 OA
BRANCH   2   6
ATOM      6  CA  PHE A   1     100.073  95.131 -40.298  0.00  0.00    +0.149 C 
BRANCH   6   7
ATOM      7  N   PHE A   1     100.769  96.119 -41.121  0.00  0.00    -0.238 NA
ATOM      8  H   PHE A   1     101.565  95.805 -41.712  0.00  0.00    +0.142 HD
ENDBRANCH   6   7
BRANCH   6   9
ATOM      9  CB  PHE A   1     100.407  93.736 -40.824  0.00  0.00    +0.053 C 
BRANCH   9  10
ATOM     10  CG  PHE A   1      99.888  92.622 -39.967  0.00  0.00    -0.020 A 
ATOM     11  CD2 PHE A   1     100.746  91.870 -39.170  0.00  0.00    -0.004 A 
ATOM     12  CE2 PHE A   1     100.257  90.827 -38.375  0.00  0.00    -0.000 A 
ATOM     13  CZ  PHE A   1      98.897  90.532 -38.390  0.00  0.00    -0.000 A 
ATOM     14  CE1 PHE A   1      98.034  91.285 -39.194  0.00  0.00    -0.000 A 
ATOM     15  CD1 PHE A   1      98.540  92.318 -39.977  0.00  0.00    -0.004 A 
ENDBRANCH   9  10
ENDBRANCH   6   9
ENDBRANCH   2   6
ENDBRANCH   1   3
BRANCH   1  16
ATOM     16  C   ARG A   2      98.456  94.625 -35.792  0.00  0.00    +0.227 C 
ATOM     17  O   ARG A   2      97.342  94.751 -36.315  0.00  0.00    -0.286 OA
ENDBRANCH   1  16
BRANCH   1  18
ATOM     18  CB  ARG A   2     100.159  96.464 -35.891  0.00  0.00    +0.031 C 
BRANCH  18  19
ATOM     19  CG  ARG A   2      99.078  97.550 -35.801  0.00  0.00    +0.045 C 
BRANCH  19  20
ATOM     20  CD  ARG A   2      98.875  98.277 -37.122  0.00  0.00    +0.174 C 
BRANCH  20  21
ATOM     21  NE  ARG A   2      97.933  99.390 -36.978  0.00  0.00    -0.265 N 
ATOM     22  HE  ARG A   2      97.570  99.609 -36.028  0.00  0.00    +0.259 HD
ATOM     23  CZ  ARG A   2      97.519 100.133 -37.998  0.00  0.00    +0.342 C 
ATOM     24  NH2 ARG A   2      96.658 101.127 -37.795  0.00  0.00    -0.292 N 
ATOM     25 HH21 ARG A   2      96.308 101.324 -36.836  0.00  0.00    +0.255 HD
ATOM     26 HH22 ARG A   2      96.335 101.707 -38.596  0.00  0.00    +0.255 HD
ATOM     27  NH1 ARG A   2      97.973  99.890 -39.226  0.00  0.00    -0.292 N 
ATOM     28 HH11 ARG A   2      98.652  99.118 -39.386  0.00  0.00    +0.255 HD
ATOM     29 HH12 ARG A   2      97.649 100.472 -40.025  0.00  0.00    +0.255 HD
ENDBRANCH  20  21
ENDBRANCH  19  20
ENDBRANCH  18  19
ENDBRANCH   1  18
TORSDOF 10
REMARK  Name = ../refined-set-2016/4agp/4agp_pocket.pdb
REMARK  101 active torsions:
REMARK  status: ('A' for Active; 'I' for Inactive)
REMARK    1  A    between atoms: _1  and  _3
REMARK    2  A    between atoms: _3  and  _4
REMARK    3  A    between atoms: _3  and  _6
REMARK    4  A    between atoms: _6  and  _7
REMARK    5  A    between atoms: _12  and  _13
REMARK    6  A    between atoms: _15  and  _17
REMARK    7  A    between atoms: _17  and  _18
REMARK    8  A    between atoms: _17  and  _20
REMARK    9  A    between atoms: _20  and  _21
REMARK   10  A    between atoms: _27  and  _29
REMARK   11  A    between atoms: _29  and  _30
REMARK   12  A    between atoms: _29  and  _32
REMARK   13  A    between atoms: _32  and  _33
REMARK   14  A    between atoms: _33  and  _34
REMARK   15  A    between atoms: _34  and  _35
REMARK   16  A    between atoms: _44  and  _46
REMARK   17  A    between atoms: _46  and  _47
REMARK   18  A    between atoms: _46  and  _49
REMARK   19  A    between atoms: _49  and  _50
REMARK   20  A    between atoms: _50  and  _51
REMARK   21  A    between atoms: _56  and  _58
REMARK   22  A    between atoms: _58  and  _59
REMARK   23  A    between atoms: _58  and  _61
REMARK   24  A    between atoms: _61  and  _62
REMARK   25  A    between atoms: _65  and  _67
REMARK   26  A    between atoms: _67  and  _68
REMARK   27  A    between atoms: _67  and  _70
REMARK   28  A    between atoms: _70  and  _71
REMARK   29  A    between atoms: _81  and  _83
REMARK   30  A    between atoms: _83  and  _84
REMARK   31  A    between atoms: _83  and  _86
REMARK   32  A    between atoms: _89  and  _91
REMARK   33  A    between atoms: _91  and  _92
REMARK   34  A    between atoms: _91  and  _94
REMARK   35  A    between atoms: _94  and  _95
REMARK   36  A    between atoms: _98  and  _100
REMARK   37  A    between atoms: _100  and  _101
REMARK   38  A    between atoms: _100  and  _103
REMARK   39  A    between atoms: _103  and  _104
REMARK   40  A    between atoms: _106  and  _108
REMARK   41  A    between atoms: _108  and  _109
REMARK   42  A    between atoms: _108  and  _111
REMARK   43  A    between atoms: _111  and  _112
REMARK   44  A    between atoms: _116  and  _117
REMARK   45  A    between atoms: _123  and  _124
REMARK   46  A    between atoms: _130  and  _131
REMARK   47  A    between atoms: _136  and  _138
REMARK   48  A    between atoms: _138  and  _139
REMARK   49  A    between atoms: _141  and  _143
REMARK   50  A    between atoms: _143  and  _144
REMARK   51  A    between atoms: _143  and  _146
REMARK   52  A    between atoms: _146  and  _147
REMARK   53  A    between atoms: _150  and  _152
REMARK   54  A    between atoms: _152  and  _153
REMARK   55  A    between atoms: _152  and  _155
REMARK   56  A    between atoms: _155  and  _156
REMARK   57  A    between atoms: _156  and  _157
REMARK   58  A    between atoms: _157  and  _158
REMARK   59  A    between atoms: _167  and  _169
REMARK   60  A    between atoms: _169  and  _170
REMARK   61  A    between atoms: _169  and  _172
REMARK   62  A    between atoms: _175  and  _177
REMARK   63  A    between atoms: _177  and  _178
REMARK   64  A    between atoms: _177  and  _180
REMARK   65  A    between atoms: _180  and  _181
REMARK   66  A    between atoms: _181  and  _182
REMARK   67  A    between atoms: _182  and  _183
REMARK   68  A    between atoms: _193  and  _194
REMARK   69  A    between atoms: _199  and  _201
REMARK   70  A    between atoms: _201  and  _202
REMARK   71  A    between atoms: _201  and  _204
REMARK   72  A    between atoms: _206  and  _208
REMARK   73  A    between atoms: _208  and  _209
REMARK   74  A    between atoms: _208  and  _211
REMARK   75  A    between atoms: _211  and  _212
REMARK   76  A    between atoms: _212  and  _213
REMARK   77  A    between atoms: _217  and  _218
REMARK   78  A    between atoms: _224  and  _225
REMARK   79  A    between atoms: _230  and  _232
REMARK   80  A    between atoms: _232  and  _233
REMARK   81  A    between atoms: _232  and  _235
REMARK   82  A    between atoms: _235  and  _236
REMARK   83  A    between atoms: _238  and  _240
REMARK   84  A    between atoms: _240  and  _241
REMARK   85  A    between atoms: _240  and  _243
REMARK   86  A    between atoms: _243  and  _244
REMARK   87  A    between atoms: _247  and  _249
REMARK   88  A    between atoms: _249  and  _250
REMARK   89  A    between atoms: _249  and  _252
REMARK   90  A    between atoms: _254  and  _256
REMARK   91  A    between atoms: _256  and  _257
REMARK   92  A    between atoms: _256  and  _259
REMARK   93  A    between atoms: _259  and  _260
REMARK   94  A    between atoms: _263  and  _265
REMARK   95  A    between atoms: _265  and  _266
REMARK   96  A    between atoms: _265  and  _268
REMARK   97  A    between atoms: _268  and  _269
REMARK   98  A    between atoms: _272  and  _274
REMARK   99  A    between atoms: _274  and  _275
REMARK  100  A    between atoms: _274  and  _277
REMARK  101  A    between atoms: _277  and  _278
REMARK                            x       y       z     vdW  Elec       q    Type
REMARK                         _______ _______ _______ _____ _____    ______ ____
ROOT
ATOM      1  CA  THR A   7      94.223  96.292 -48.098  0.00  0.00    +0.176 C 
ENDROOT
BRANCH   1   2
ATOM      2  C   THR A   7      95.199  95.296 -48.717  0.00  0.00    +0.246 C 
ATOM      3  N   PRO A   8      95.412  94.156 -48.046  0.00  0.00    -0.272 N 
ATOM      4  CD  PRO A   8      94.980  93.824 -46.680  0.00  0.00    +0.094 C 
ATOM      5  CG  PRO A   8      96.043  92.877 -46.226  0.00  0.00    +0.024 C 
ATOM      6  CB  PRO A   8      96.560  92.184 -47.448  0.00  0.00    +0.031 C 
ATOM      7  CA  PRO A   8      96.271  93.122 -48.630  0.00  0.00    +0.152 C 
ATOM      8  O   THR A   7      95.753  95.548 -49.782  0.00  0.00    -0.273 OA
BRANCH   7   9
ATOM      9  C   PRO A   8      95.501  92.380 -49.717  0.00  0.00    +0.244 C 
ATOM     10  O   PRO A   8      94.275  92.457 -49.772  0.00  0.00    -0.273 OA
ATOM     11  N   PRO A   9      96.217  91.663 -50.593  0.00  0.00    -0.272 N 
ATOM     12  CD  PRO A   9      97.684  91.651 -50.721  0.00  0.00    +0.094 C 
ATOM     13  CG  PRO A   9      97.890  91.231 -52.159  0.00  0.00    +0.024 C 
ATOM     14  CB  PRO A   9      96.740  90.335 -52.451  0.00  0.00    +0.031 C 
ATOM     15  CA  PRO A   9      95.560  90.945 -51.689  0.00  0.00    +0.152 C 
BRANCH  15  16
ATOM     16  C   PRO A   9      94.606  89.848 -51.228  0.00  0.00    +0.244 C 
ATOM     17  O   PRO A   9      94.808  89.256 -50.169  0.00  0.00    -0.273 OA
ATOM     18  N   PRO A  10      93.564  89.571 -52.019  0.00  0.00    -0.272 N 
ATOM     19  CA  PRO A  10      92.743  88.393 -51.752  0.00  0.00    +0.152 C 
ATOM     20  CB  PRO A  10      91.839  88.310 -52.987  0.00  0.00    +0.031 C 
ATOM     21  CG  PRO A  10      91.775  89.710 -53.497  0.00  0.00    +0.024 C 
ATOM     22  CD  PRO A  10      93.121  90.299 -53.222  0.00  0.00    +0.094 C 
BRANCH  19  23
ATOM     23  C   PRO A  10      93.660  87.177 -51.699  0.00  0.00    +0.241 C 
ATOM     24  N   GLY A  11      93.438  86.288 -50.737  0.00  0.00    -0.295 N 
ATOM     25  H   GLY A  11      92.655  86.438 -50.069  0.00  0.00    +0.150 HD
ATOM     26  O   PRO A  10      94.578  87.065 -52.523  0.00  0.00    -0.273 OA
BRANCH  24  27
ATOM     27  CA  GLY A  11      94.277  85.108 -50.607  0.00  0.00    +0.176 C 
BRANCH  27  28
ATOM     28  C   GLY A  11      95.326  85.247 -49.521  0.00  0.00    +0.243 C 
ATOM     29  N   THR A  12      95.495  86.467 -49.012  0.00  0.00    -0.295 N 
ATOM     30  H   THR A  12      95.023  87.275 -49.465  0.00  0.00    +0.150 HD
ATOM     31  O   GLY A  11      95.981  84.275 -49.158  0.00  0.00    -0.273 OA
BRANCH  29  32
ATOM     32  CA  THR A  12      96.328  86.698 -47.832  0.00  0.00    +0.176 C 
BRANCH  32  33
ATOM     33  C   THR A  12      95.751  85.892 -46.670  0.00  0.00    +0.243 C 
ATOM     34  N   ARG A  13      96.625  85.379 -45.804  0.00  0.00    -0.297 N 
ATOM     35  H   ARG A  13      97.642  85.547 -45.945  0.00  0.00    +0.150 HD
ATOM     36  O   THR A  12      94.528  85.745 -46.561  0.00  0.00    -0.273 OA
BRANCH  34  37
ATOM     37  CA  ARG A  13      96.181  84.587 -44.663  0.00  0.00    +0.149 C 
BRANCH  37  38
ATOM     38  C   ARG A  13      96.857  85.059 -43.385  0.00  0.00    +0.241 C 
ATOM     39  N   VAL A  14      96.319  84.612 -42.248  0.00  0.00    -0.298 N 
ATOM     40  H   VAL A  14      95.521  83.948 -42.302  0.00  0.00    +0.150 HD
ATOM     41  O   ARG A  13      97.841  85.795 -43.427  0.00  0.00    -0.273 OA
BRANCH  39  42
ATOM     42  CA  VAL A  14      96.805  85.017 -40.932  0.00  0.00    +0.137 C 
BRANCH  42  43
ATOM     43  CB  VAL A  14      95.754  85.857 -40.181  0.00  0.00    +0.026 C 
ATOM     44  CG2 VAL A  14      96.311  86.326 -38.845  0.00  0.00    +0.002 C 
ATOM     45  CG1 VAL A  14      95.303  87.037 -41.040  0.00  0.00    +0.002 C 
ENDBRANCH  42  43
BRANCH  42  46
ATOM     46  C   VAL A  14      97.071  83.753 -40.133  0.00  0.00    +0.227 C 
ATOM     47  O   VAL A  14      96.150  82.967 -39.901  0.00  0.00    -0.286 OA
ENDBRANCH  42  46
ENDBRANCH  39  42
ENDBRANCH  37  38
BRANCH  37  48
ATOM     48  CB  ARG A  13      96.467  83.100 -44.883  0.00  0.00    +0.033 C 
BRANCH  48  49
ATOM     49  CG  ARG A  13      95.776  82.523 -46.110  0.00  0.00    +0.045 C 
BRANCH  49  50
ATOM     50  CD  ARG A  13      95.457  81.038 -45.928  0.00  0.00    +0.174 C 
BRANCH  50  51
ATOM     51  NE  ARG A  13      96.662  80.223 -45.978  0.00  0.00    -0.265 N 
ATOM     52  CZ  ARG A  13      96.673  78.905 -45.812  0.00  0.00    +0.342 C 
ATOM     53  NH2 ARG A  13      95.541  78.271 -45.546  0.00  0.00    -0.292 N 
ATOM     54 HH21 ARG A  13      95.541  77.239 -45.415  0.00  0.00    +0.255 HD
ATOM     55 HH22 ARG A  13      94.652  78.805 -45.468  0.00  0.00    +0.255 HD
ATOM     56  NH1 ARG A  13      97.813  78.230 -45.899  0.00  0.00    -0.292 N 
ATOM     57 HH11 ARG A  13      97.818  77.198 -45.768  0.00  0.00    +0.255 HD
ATOM     58 HH12 ARG A  13      98.701  78.733 -46.098  0.00  0.00    +0.255 HD
ATOM     59  HE  ARG A  13      97.569  80.701 -46.154  0.00  0.00    +0.259 HD
ENDBRANCH  50  51
ENDBRANCH  49  50
ENDBRANCH  48  49
ENDBRANCH  37  48
ENDBRANCH  34  37
ENDBRANCH  32  33
BRANCH  32  60
ATOM     60  CB  THR A  12      96.351  88.198 -47.474  0.00  0.00    +0.137 C 
ATOM     61  CG2 THR A  12      97.260  88.476 -46.278  0.00  0.00    +0.034 C 
BRANCH  60  62
ATOM     62  OG1 THR A  12      96.831  88.950 -48.596  0.00  0.00    -0.382 OA
ATOM     63  HG1 THR A  12      96.232  88.804 -49.370  0.00  0.00    +0.210 HD
ENDBRANCH  60  62
ENDBRANCH  32  60
ENDBRANCH  29  32
ENDBRANCH  27  28
ENDBRANCH  24  27
ENDBRANCH  19  23
ENDBRANCH  15  16
ENDBRANCH   7   9
ENDBRANCH   1   2
BRANCH   1  66
ATOM     64  C   SER A   6      95.760  97.799 -46.956  0.00  0.00    +0.243 C 
ATOM     65  O   SER A   6      96.236  96.891 -46.269  0.00  0.00    -0.273 OA
ATOM     66  N   THR A   7      94.833  97.595 -47.883  0.00  0.00    -0.295 N 
ATOM     67  H   THR A   7      94.532  98.394 -48.476  0.00  0.00    +0.150 HD
BRANCH  64  68
ATOM     68  CA  SER A   6      96.199  99.251 -46.760  0.00  0.00    +0.178 C 
BRANCH  68  71
ATOM     69  C   ASP A   5      96.498 100.596 -44.758  0.00  0.00    +0.241 C 
ATOM     70  O   ASP A   5      95.894 101.550 -45.251  0.00  0.00    -0.273 OA
ATOM     71  N   SER A   6      96.729  99.466 -45.420  0.00  0.00    -0.295 N 
ATOM     72  H   SER A   6      97.300  98.721 -44.972  0.00  0.00    +0.150 HD
BRANCH  69  73
ATOM     73  CA  ASP A   5      97.059 100.686 -43.347  0.00  0.00    +0.160 C 
BRANCH  73  76
ATOM     74  C   VAL A   4      96.119  98.827 -42.083  0.00  0.00    +0.241 C 
ATOM     75  O   VAL A   4      95.056  99.422 -41.882  0.00  0.00    -0.273 OA
ATOM     76  N   ASP A   5      97.151  99.363 -42.723  0.00  0.00    -0.297 N 
ATOM     77  H   ASP A   5      98.044  98.833 -42.783  0.00  0.00    +0.150 HD
BRANCH  74  78
ATOM     78  CA  VAL A   4      96.306  97.398 -41.607  0.00  0.00    +0.149 C 
BRANCH  78  81
ATOM     79  C   TRP A   3      95.803  96.439 -39.431  0.00  0.00    +0.241 C 
ATOM     80  O   TRP A   3      96.919  95.920 -39.345  0.00  0.00    -0.273 OA
ATOM     81  N   VAL A   4      95.396  97.115 -40.501  0.00  0.00    -0.297 N 
ATOM     82  H   VAL A   4      94.412  97.448 -40.551  0.00  0.00    +0.150 HD
BRANCH  79  83
ATOM     83  CA  TRP A   3      94.810  96.323 -38.283  0.00  0.00    +0.153 C 
BRANCH  83  85
ATOM     84  C   LEU A   2      93.805  94.168 -37.660  0.00  0.00    +0.241 C 
ATOM     85  N   TRP A   3      94.864  94.977 -37.721  0.00  0.00    -0.297 N 
ATOM     86  H   TRP A   3      95.772  94.632 -37.350  0.00  0.00    +0.150 HD
ATOM     87  O   LEU A   2      92.686  94.485 -38.028  0.00  0.00    -0.273 OA
BRANCH  84  88
ATOM     88  CA  LEU A   2      94.026  92.793 -37.057  0.00  0.00    +0.149 C 
BRANCH  88  91
ATOM     89  C   GLN A   1      93.401  92.530 -34.702  0.00  0.00    +0.238 C 
ATOM     90  O   GLN A   1      94.585  92.498 -34.316  0.00  0.00    -0.274 OA
ATOM     91  N   LEU A   2      93.042  92.601 -35.984  0.00  0.00    -0.297 N 
ATOM     92  H   LEU A   2      92.035  92.518 -36.231  0.00  0.00    +0.150 HD
BRANCH  89  93
ATOM     93  CA  GLN A   1      92.256  92.533 -33.703  0.00  0.00    +0.145 C 
BRANCH  93  94
ATOM     94  N   GLN A   1      92.530  91.694 -32.540  0.00  0.00    -0.238 NA
ATOM     95  H   GLN A   1      92.953  92.125 -31.693  0.00  0.00    +0.142 HD
ENDBRANCH  93  94
BRANCH  93  96
ATOM     96  CB  GLN A   1      91.996  93.975 -33.264  0.00  0.00    +0.036 C 
BRANCH  96  97
ATOM     97  CG  GLN A   1      90.837  94.120 -32.304  0.00  0.00    +0.087 C 
BRANCH  97  98
ATOM     98  CD  GLN A   1      90.669  95.525 -31.796  0.00  0.00    +0.219 C 
ATOM     99  NE2 GLN A   1      89.456  95.841 -31.357  0.00  0.00    -0.329 N 
ATOM    100 HE21 GLN A   1      89.265  96.799 -31.001  0.00  0.00    +0.145 HD
ATOM    101 HE22 GLN A   1      88.697  95.130 -31.370  0.00  0.00    +0.145 HD
ATOM    102  OE1 GLN A   1      91.608  96.330 -31.804  0.00  0.00    -0.275 OA
ENDBRANCH  97  98
ENDBRANCH  96  97
ENDBRANCH  93  96
ENDBRANCH  89  93
ENDBRANCH  88  91
BRANCH  88 103
ATOM    103  CB  LEU A   2      93.852  91.746 -38.156  0.00  0.00    +0.029 C 
BRANCH 103 104
ATOM    104  CG  LEU A   2      93.727  90.304 -37.679  0.00  0.00    +0.002 C 
ATOM    105  CD2 LEU A   2      94.970  89.873 -36.922  0.00  0.00    +0.000 C 
ATOM    106  CD1 LEU A   2      93.467  89.384 -38.875  0.00  0.00    +0.000 C 
ENDBRANCH 103 104
ENDBRANCH  88 103
ENDBRANCH  84  88
ENDBRANCH  83  85
BRANCH  83 107
ATOM    107  CB  TRP A   3      95.213  97.337 -37.211  0.00  0.00    +0.057 C 
BRANCH 107 108
ATOM    108  CG  TRP A   3      94.204  97.503 -36.115  0.00  0.00    -0.002 A 
ATOM    109  CD1 TRP A   3      94.112  96.783 -34.952  0.00  0.00    +0.068 A 
ATOM    110  NE1 TRP A   3      93.052  97.239 -34.200  0.00  0.00    -0.352 N 
ATOM    111  HE1 TRP A   3      92.762  96.864 -33.275  0.00  0.00    +0.166 HD
ATOM    112  CE2 TRP A   3      92.442  98.268 -34.870  0.00  0.00    +0.056 A 
ATOM    113  CZ2 TRP A   3      91.336  99.050 -34.512  0.00  0.00    +0.017 A 
ATOM    114  CH2 TRP A   3      90.935 100.020 -35.393  0.00  0.00    +0.001 A 
ATOM    115  CZ3 TRP A   3      91.611 100.235 -36.605  0.00  0.00    +0.000 A 
ATOM    116  CE3 TRP A   3      92.708  99.459 -36.961  0.00  0.00    +0.001 A 
ATOM    117  CD2 TRP A   3      93.139  98.458 -36.081  0.00  0.00    +0.013 A 
ENDBRANCH 107 108
ENDBRANCH  83 107
ENDBRANCH  79  83
ENDBRANCH  78  81
BRANCH  78 118
ATOM    118  CB  VAL A   4      96.109  96.441 -42.825  0.00  0.00    +0.027 C 
ATOM    119  CG2 VAL A   4      96.464  94.988 -42.460  0.00  0.00    +0.002 C 
ATOM    120  CG1 VAL A   4      94.680  96.535 -43.367  0.00  0.00    +0.002 C 
ENDBRANCH  78 118
ENDBRANCH  74  78
ENDBRANCH  73  76
BRANCH  73 121
ATOM    121  CB  ASP A   5      98.431 101.347 -43.413  0.00  0.00    +0.143 C 
BRANCH 121 122
ATOM    122  CG  ASP A   5      98.943 101.781 -42.061  0.00  0.00    +0.367 C 
ATOM    123  OD2 ASP A   5      98.117 102.084 -41.171  0.00  0.00    -0.246 OA
ATOM    124  OD1 ASP A   5     100.180 101.825 -41.887  0.00  0.00    -0.246 OA
ENDBRANCH 121 122
ENDBRANCH  73 121
ENDBRANCH  69  73
ENDBRANCH  68  71
BRANCH  68 125
ATOM    125  CB  SER A   6      97.212  99.674 -47.830  0.00  0.00    +0.166 C 
BRANCH 125 126
ATOM    126  OG  SER A   6      98.439  98.982 -47.699  0.00  0.00    -0.380 OA
ATOM    127  H   SER A   6      98.830  99.171 -46.809  0.00  0.00    +0.211 HD
ENDBRANCH 125 126
ENDBRANCH  68 125
ENDBRANCH  64  68
ENDBRANCH   1  66
BRANCH   1 128
ATOM    128  CB  THR A   7      92.999  96.396 -49.019  0.00  0.00    +0.137 C 
ATOM    129  CG2 THR A   7      92.375  95.026 -49.215  0.00  0.00    +0.034 C 
BRANCH 128 130
ATOM    130  OG1 THR A   7      92.029  97.293 -48.445  0.00  0.00    -0.382 OA
ATOM    131  HG1 THR A   7      92.434  98.190 -48.337  0.00  0.00    +0.210 HD
ENDBRANCH 128 130
ENDBRANCH   1 128
TORSDOF 46
REMARK  Name = ../refined-set-2016/4agp/4agp_pocket.pdb
REMARK  101 active torsions:
REMARK  status: ('A' for Active; 'I' for Inactive)
REMARK    1  A    between atoms: _1  and  _3
REMARK    2  A    between atoms: _3  and  _4
REMARK    3  A    between atoms: _3  and  _6
REMARK    4  A    between atoms: _6  and  _7
REMARK    5  A    between atoms: _12  and  _13
REMARK    6  A    between atoms: _15  and  _17
REMARK    7  A    between atoms: _17  and  _18
REMARK    8  A    between atoms: _17  and  _20
REMARK    9  A    between atoms: _20  and  _21
REMARK   10  A    between atoms: _27  and  _29
REMARK   11  A    between atoms: _29  and  _30
REMARK   12  A    between atoms: _29  and  _32
REMARK   13  A    between atoms: _32  and  _33
REMARK   14  A    between atoms: _33  and  _34
REMARK   15  A    between atoms: _34  and  _35
REMARK   16  A    between atoms: _44  and  _46
REMARK   17  A    between atoms: _46  and  _47
REMARK   18  A    between atoms: _46  and  _49
REMARK   19  A    between atoms: _49  and  _50
REMARK   20  A    between atoms: _50  and  _51
REMARK   21  A    between atoms: _56  and  _58
REMARK   22  A    between atoms: _58  and  _59
REMARK   23  A    between atoms: _58  and  _61
REMARK   24  A    between atoms: _61  and  _62
REMARK   25  A    between atoms: _65  and  _67
REMARK   26  A    between atoms: _67  and  _68
REMARK   27  A    between atoms: _67  and  _70
REMARK   28  A    between atoms: _70  and  _71
REMARK   29  A    between atoms: _81  and  _83
REMARK   30  A    between atoms: _83  and  _84
REMARK   31  A    between atoms: _83  and  _86
REMARK   32  A    between atoms: _89  and  _91
REMARK   33  A    between atoms: _91  and  _92
REMARK   34  A    between atoms: _91  and  _94
REMARK   35  A    between atoms: _94  and  _95
REMARK   36  A    between atoms: _98  and  _100
REMARK   37  A    between atoms: _100  and  _101
REMARK   38  A    between atoms: _100  and  _103
REMARK   39  A    between atoms: _103  and  _104
REMARK   40  A    between atoms: _106  and  _108
REMARK   41  A    between atoms: _108  and  _109
REMARK   42  A    between atoms: _108  and  _111
REMARK   43  A    between atoms: _111  and  _112
REMARK   44  A    between atoms: _116  and  _117
REMARK   45  A    between atoms: _123  and  _124
REMARK   46  A    between atoms: _130  and  _131
REMARK   47  A    between atoms: _136  and  _138
REMARK   48  A    between atoms: _138  and  _139
REMARK   49  A    between atoms: _141  and  _143
REMARK   50  A    between atoms: _143  and  _144
REMARK   51  A    between atoms: _143  and  _146
REMARK   52  A    between atoms: _146  and  _147
REMARK   53  A    between atoms: _150  and  _152
REMARK   54  A    between atoms: _152  and  _153
REMARK   55  A    between atoms: _152  and  _155
REMARK   56  A    between atoms: _155  and  _156
REMARK   57  A    between atoms: _156  and  _157
REMARK   58  A    between atoms: _157  and  _158
REMARK   59  A    between atoms: _167  and  _169
REMARK   60  A    between atoms: _169  and  _170
REMARK   61  A    between atoms: _169  and  _172
REMARK   62  A    between atoms: _175  and  _177
REMARK   63  A    between atoms: _177  and  _178
REMARK   64  A    between atoms: _177  and  _180
REMARK   65  A    between atoms: _180  and  _181
REMARK   66  A    between atoms: _181  and  _182
REMARK   67  A    between atoms: _182  and  _183
REMARK   68  A    between atoms: _193  and  _194
REMARK   69  A    between atoms: _199  and  _201
REMARK   70  A    between atoms: _201  and  _202
REMARK   71  A    between atoms: _201  and  _204
REMARK   72  A    between atoms: _206  and  _208
REMARK   73  A    between atoms: _208  and  _209
REMARK   74  A    between atoms: _208  and  _211
REMARK   75  A    between atoms: _211  and  _212
REMARK   76  A    between atoms: _212  and  _213
REMARK   77  A    between atoms: _217  and  _218
REMARK   78  A    between atoms: _224  and  _225
REMARK   79  A    between atoms: _230  and  _232
REMARK   80  A    between atoms: _232  and  _233
REMARK   81  A    between atoms: _232  and  _235
REMARK   82  A    between atoms: _235  and  _236
REMARK   83  A    between atoms: _238  and  _240
REMARK   84  A    between atoms: _240  and  _241
REMARK   85  A    between atoms: _240  and  _243
REMARK   86  A    between atoms: _243  and  _244
REMARK   87  A    between atoms: _247  and  _249
REMARK   88  A    between atoms: _249  and  _250
REMARK   89  A    between atoms: _249  and  _252
REMARK   90  A    between atoms: _254  and  _256
REMARK   91  A    between atoms: _256  and  _257
REMARK   92  A    between atoms: _256  and  _259
REMARK   93  A    between atoms: _259  and  _260
REMARK   94  A    between atoms: _263  and  _265
REMARK   95  A    between atoms: _265  and  _266
REMARK   96  A    between atoms: _265  and  _268
REMARK   97  A    between atoms: _268  and  _269
REMARK   98  A    between atoms: _272  and  _274
REMARK   99  A    between atoms: _274  and  _275
REMARK  100  A    between atoms: _274  and  _277
REMARK  101  A    between atoms: _277  and  _278
REMARK                            x       y       z     vdW  Elec       q    Type
REMARK                         _______ _______ _______ _____ _____    ______ ____
ROOT
ATOM      1  NE  ARG A   1      86.763  81.586 -45.674  0.00  0.00    -0.265 N 
ATOM      2  HE  ARG A   1      86.405  81.789 -44.719  0.00  0.00    +0.259 HD
ATOM      3  CZ  ARG A   1      87.092  82.617 -46.446  0.00  0.00    +0.342 C 
ATOM      4  NH2 ARG A   1      86.959  83.855 -45.989  0.00  0.00    -0.292 N 
ATOM      5 HH21 ARG A   1      86.598  84.018 -45.028  0.00  0.00    +0.255 HD
ATOM      6 HH22 ARG A   1      87.216  84.662 -46.592  0.00  0.00    +0.255 HD
ATOM      7  NH1 ARG A   1      87.564  82.412 -47.671  0.00  0.00    -0.292 N 
ATOM      8 HH11 ARG A   1      87.677  81.442 -48.029  0.00  0.00    +0.255 HD
ATOM      9 HH12 ARG A   1      87.820  83.221 -48.272  0.00  0.00    +0.255 HD
ENDROOT
BRANCH   1  10
ATOM     10  CD  ARG A   1      86.871  80.189 -46.079  0.00  0.00    +0.174 C 
BRANCH  10  11
ATOM     11  CG  ARG A   1      86.677  79.245 -44.909  0.00  0.00    +0.045 C 
BRANCH  11  12
ATOM     12  CB  ARG A   1      87.872  79.264 -43.948  0.00  0.00    +0.029 C 
BRANCH  12  13
ATOM     13  CA  ARG A   1      87.917  78.050 -43.015  0.00  0.00    +0.133 C 
BRANCH  13  14
ATOM     14  N   ARG A   1      86.800  78.069 -42.082  0.00  0.00    -0.239 NA
ATOM     15  H   ARG A   1      86.509  78.969 -41.649  0.00  0.00    +0.142 HD
ENDBRANCH  13  14
BRANCH  13  16
ATOM     16  C   ARG A   1      89.281  77.936 -42.321  0.00  0.00    +0.224 C 
ATOM     17  O   ARG A   1      90.316  78.031 -42.975  0.00  0.00    -0.287 OA
ENDBRANCH  13  16
ENDBRANCH  12  13
ENDBRANCH  11  12
ENDBRANCH  10  11
ENDBRANCH   1  10
TORSDOF 6
REMARK  Name = ../refined-set-2016/4agp/4agp_pocket.pdb
REMARK  101 active torsions:
REMARK  status: ('A' for Active; 'I' for Inactive)
REMARK    1  A    between atoms: _1  and  _3
REMARK    2  A    between atoms: _3  and  _4
REMARK    3  A    between atoms: _3  and  _6
REMARK    4  A    between atoms: _6  and  _7
REMARK    5  A    between atoms: _12  and  _13
REMARK    6  A    between atoms: _15  and  _17
REMARK    7  A    between atoms: _17  and  _18
REMARK    8  A    between atoms: _17  and  _20
REMARK    9  A    between atoms: _20  and  _21
REMARK   10  A    between atoms: _27  and  _29
REMARK   11  A    between atoms: _29  and  _30
REMARK   12  A    between atoms: _29  and  _32
REMARK   13  A    between atoms: _32  and  _33
REMARK   14  A    between atoms: _33  and  _34
REMARK   15  A    between atoms: _34  and  _35
REMARK   16  A    between atoms: _44  and  _46
REMARK   17  A    between atoms: _46  and  _47
REMARK   18  A    between atoms: _46  and  _49
REMARK   19  A    between atoms: _49  and  _50
REMARK   20  A    between atoms: _50  and  _51
REMARK   21  A    between atoms: _56  and  _58
REMARK   22  A    between atoms: _58  and  _59
REMARK   23  A    between atoms: _58  and  _61
REMARK   24  A    between atoms: _61  and  _62
REMARK   25  A    between atoms: _65  and  _67
REMARK   26  A    between atoms: _67  and  _68
REMARK   27  A    between atoms: _67  and  _70
REMARK   28  A    between atoms: _70  and  _71
REMARK   29  A    between atoms: _81  and  _83
REMARK   30  A    between atoms: _83  and  _84
REMARK   31  A    between atoms: _83  and  _86
REMARK   32  A    between atoms: _89  and  _91
REMARK   33  A    between atoms: _91  and  _92
REMARK   34  A    between atoms: _91  and  _94
REMARK   35  A    between atoms: _94  and  _95
REMARK   36  A    between atoms: _98  and  _100
REMARK   37  A    between atoms: _100  and  _101
REMARK   38  A    between atoms: _100  and  _103
REMARK   39  A    between atoms: _103  and  _104
REMARK   40  A    between atoms: _106  and  _108
REMARK   41  A    between atoms: _108  and  _109
REMARK   42  A    between atoms: _108  and  _111
REMARK   43  A    between atoms: _111  and  _112
REMARK   44  A    between atoms: _116  and  _117
REMARK   45  A    between atoms: _123  and  _124
REMARK   46  A    between atoms: _130  and  _131
REMARK   47  A    between atoms: _136  and  _138
REMARK   48  A    between atoms: _138  and  _139
REMARK   49  A    between atoms: _141  and  _143
REMARK   50  A    between atoms: _143  and  _144
REMARK   51  A    between atoms: _143  and  _146
REMARK   52  A    between atoms: _146  and  _147
REMARK   53  A    between atoms: _150  and  _152
REMARK   54  A    between atoms: _152  and  _153
REMARK   55  A    between atoms: _152  and  _155
REMARK   56  A    between atoms: _155  and  _156
REMARK   57  A    between atoms: _156  and  _157
REMARK   58  A    between atoms: _157  and  _158
REMARK   59  A    between atoms: _167  and  _169
REMARK   60  A    between atoms: _169  and  _170
REMARK   61  A    between atoms: _169  and  _172
REMARK   62  A    between atoms: _175  and  _177
REMARK   63  A    between atoms: _177  and  _178
REMARK   64  A    between atoms: _177  and  _180
REMARK   65  A    between atoms: _180  and  _181
REMARK   66  A    between atoms: _181  and  _182
REMARK   67  A    between atoms: _182  and  _183
REMARK   68  A    between atoms: _193  and  _194
REMARK   69  A    between atoms: _199  and  _201
REMARK   70  A    between atoms: _201  and  _202
REMARK   71  A    between atoms: _201  and  _204
REMARK   72  A    between atoms: _206  and  _208
REMARK   73  A    between atoms: _208  and  _209
REMARK   74  A    between atoms: _208  and  _211
REMARK   75  A    between atoms: _211  and  _212
REMARK   76  A    between atoms: _212  and  _213
REMARK   77  A    between atoms: _217  and  _218
REMARK   78  A    between atoms: _224  and  _225
REMARK   79  A    between atoms: _230  and  _232
REMARK   80  A    between atoms: _232  and  _233
REMARK   81  A    between atoms: _232  and  _235
REMARK   82  A    between atoms: _235  and  _236
REMARK   83  A    between atoms: _238  and  _240
REMARK   84  A    between atoms: _240  and  _241
REMARK   85  A    between atoms: _240  and  _243
REMARK   86  A    between atoms: _243  and  _244
REMARK   87  A    between atoms: _247  and  _249
REMARK   88  A    between atoms: _249  and  _250
REMARK   89  A    between atoms: _249  and  _252
REMARK   90  A    between atoms: _254  and  _256
REMARK   91  A    between atoms: _256  and  _257
REMARK   92  A    between atoms: _256  and  _259
REMARK   93  A    between atoms: _259  and  _260
REMARK   94  A    between atoms: _263  and  _265
REMARK   95  A    between atoms: _265  and  _266
REMARK   96  A    between atoms: _265  and  _268
REMARK   97  A    between atoms: _268  and  _269
REMARK   98  A    between atoms: _272  and  _274
REMARK   99  A    between atoms: _274  and  _275
REMARK  100  A    between atoms: _274  and  _277
REMARK  101  A    between atoms: _277  and  _278
REMARK                            x       y       z     vdW  Elec       q    Type
REMARK                         _______ _______ _______ _____ _____    ______ ____
ROOT
ATOM      1  CA  GLU A   3      89.166  89.137 -44.493  0.00  0.00    +0.149 C 
ENDROOT
BRANCH   1   2
ATOM      2  C   GLU A   3      89.011  90.596 -44.106  0.00  0.00    +0.244 C 
ATOM      3  O   GLU A   3      89.456  90.998 -43.037  0.00  0.00    -0.273 OA
ATOM      4  N   PRO A   4      88.376  91.394 -44.973  0.00  0.00    -0.272 N 
ATOM      5  CA  PRO A   4      88.079  92.786 -44.614  0.00  0.00    +0.152 C 
ATOM      6  CB  PRO A   4      87.445  93.349 -45.892  0.00  0.00    +0.031 C 
ATOM      7  CG  PRO A   4      87.940  92.446 -46.998  0.00  0.00    +0.024 C 
ATOM      8  CD  PRO A   4      88.033  91.090 -46.374  0.00  0.00    +0.094 C 
BRANCH   5   9
ATOM      9  C   PRO A   4      87.093  92.858 -43.444  0.00  0.00    +0.244 C 
ATOM     10  N   PRO A   5      87.085  93.985 -42.721  0.00  0.00    -0.273 N 
ATOM     11  CA  PRO A   5      86.194  94.147 -41.566  0.00  0.00    +0.140 C 
ATOM     12  CB  PRO A   5      86.505  95.570 -41.092  0.00  0.00    +0.030 C 
ATOM     13  CG  PRO A   5      87.916  95.808 -41.523  0.00  0.00    +0.024 C 
ATOM     14  CD  PRO A   5      88.066  95.078 -42.829  0.00  0.00    +0.094 C 
ATOM     15  O   PRO A   4      86.370  91.901 -43.177  0.00  0.00    -0.273 OA
BRANCH  11  16
ATOM     16  C   PRO A   5      84.712  94.038 -41.923  0.00  0.00    +0.227 C 
ATOM     17  O   PRO A   5      84.330  94.279 -43.067  0.00  0.00    -0.286 OA
ENDBRANCH  11  16
ENDBRANCH   5   9
ENDBRANCH   1   2
BRANCH   1  19
ATOM     18  C   CYS A   2      91.360  88.102 -44.663  0.00  0.00    +0.242 C 
ATOM     19  N   GLU A   3      90.388  88.593 -43.904  0.00  0.00    -0.297 N 
ATOM     20  H   GLU A   3      90.498  88.591 -42.870  0.00  0.00    +0.150 HD
ATOM     21  O   CYS A   2      91.320  88.118 -45.890  0.00  0.00    -0.273 OA
BRANCH  18  22
ATOM     22  CA  CYS A   2      92.550  87.477 -43.948  0.00  0.00    +0.160 C 
BRANCH  22  25
ATOM     23  C   PRO A   1      91.907  85.130 -43.879  0.00  0.00    +0.239 C 
ATOM     24  O   PRO A   1      91.197  85.303 -42.884  0.00  0.00    -0.274 OA
ATOM     25  N   CYS A   2      92.645  86.100 -44.406  0.00  0.00    -0.296 N 
ATOM     26  H   CYS A   2      93.312  85.868 -45.170  0.00  0.00    +0.150 HD
BRANCH  23  31
ATOM     27  N   PRO A   1      91.908  82.671 -43.588  0.00  0.00    -0.210 NA
ATOM     28  CD  PRO A   1      90.782  81.760 -43.855  0.00  0.00    +0.089 C 
ATOM     29  CG  PRO A   1      90.436  82.078 -45.299  0.00  0.00    +0.021 C 
ATOM     30  CB  PRO A   1      90.741  83.532 -45.439  0.00  0.00    +0.028 C 
ATOM     31  CA  PRO A   1      91.981  83.762 -44.567  0.00  0.00    +0.149 C 
ENDBRANCH  23  31
ENDBRANCH  22  25
BRANCH  22  32
ATOM     32  CB  CYS A   2      93.830  88.212 -44.317  0.00  0.00    +0.098 C 
ATOM     33  SG  CYS A   2      93.882  89.923 -43.749  0.00  0.00    -0.080 S 
ENDBRANCH  22  32
ENDBRANCH  18  22
ENDBRANCH   1  19
BRANCH   1  34
ATOM     34  CB  GLU A   3      87.947  88.373 -43.984  0.00  0.00    +0.041 C 
BRANCH  34  35
ATOM     35  CG  GLU A   3      88.008  86.878 -44.176  0.00  0.00    +0.116 C 
BRANCH  35  36
ATOM     36  CD  GLU A   3      86.958  86.152 -43.353  0.00  0.00    +0.365 C 
ATOM     37  OE2 GLU A   3      86.316  86.800 -42.498  0.00  0.00    -0.246 OA
ATOM     38  OE1 GLU A   3      86.777  84.933 -43.558  0.00  0.00    -0.246 OA
ENDBRANCH  35  36
ENDBRANCH  34  35
ENDBRANCH   1  34
TORSDOF 11
REMARK  Name = ../refined-set-2016/4agp/4agp_pocket.pdb
REMARK  101 active torsions:
REMARK  status: ('A' for Active; 'I' for Inactive)
REMARK    1  A    between atoms: _1  and  _3
REMARK    2  A    between atoms: _3  and  _4
REMARK    3  A    between atoms: _3  and  _6
REMARK    4  A    between atoms: _6  and  _7
REMARK    5  A    between atoms: _12  and  _13
REMARK    6  A    between atoms: _15  and  _17
REMARK    7  A    between atoms: _17  and  _18
REMARK    8  A    between atoms: _17  and  _20
REMARK    9  A    between atoms: _20  and  _21
REMARK   10  A    between atoms: _27  and  _29
REMARK   11  A    between atoms: _29  and  _30
REMARK   12  A    between atoms: _29  and  _32
REMARK   13  A    between atoms: _32  and  _33
REMARK   14  A    between atoms: _33  and  _34
REMARK   15  A    between atoms: _34  and  _35
REMARK   16  A    between atoms: _44  and  _46
REMARK   17  A    between atoms: _46  and  _47
REMARK   18  A    between atoms: _46  and  _49
REMARK   19  A    between atoms: _49  and  _50
REMARK   20  A    between atoms: _50  and  _51
REMARK   21  A    between atoms: _56  and  _58
REMARK   22  A    between atoms: _58  and  _59
REMARK   23  A    between atoms: _58  and  _61
REMARK   24  A    between atoms: _61  and  _62
REMARK   25  A    between atoms: _65  and  _67
REMARK   26  A    between atoms: _67  and  _68
REMARK   27  A    between atoms: _67  and  _70
REMARK   28  A    between atoms: _70  and  _71
REMARK   29  A    between atoms: _81  and  _83
REMARK   30  A    between atoms: _83  and  _84
REMARK   31  A    between atoms: _83  and  _86
REMARK   32  A    between atoms: _89  and  _91
REMARK   33  A    between atoms: _91  and  _92
REMARK   34  A    between atoms: _91  and  _94
REMARK   35  A    between atoms: _94  and  _95
REMARK   36  A    between atoms: _98  and  _100
REMARK   37  A    between atoms: _100  and  _101
REMARK   38  A    between atoms: _100  and  _103
REMARK   39  A    between atoms: _103  and  _104
REMARK   40  A    between atoms: _106  and  _108
REMARK   41  A    between atoms: _108  and  _109
REMARK   42  A    between atoms: _108  and  _111
REMARK   43  A    between atoms: _111  and  _112
REMARK   44  A    between atoms: _116  and  _117
REMARK   45  A    between atoms: _123  and  _124
REMARK   46  A    between atoms: _130  and  _131
REMARK   47  A    between atoms: _136  and  _138
REMARK   48  A    between atoms: _138  and  _139
REMARK   49  A    between atoms: _141  and  _143
REMARK   50  A    between atoms: _143  and  _144
REMARK   51  A    between atoms: _143  and  _146
REMARK   52  A    between atoms: _146  and  _147
REMARK   53  A    between atoms: _150  and  _152
REMARK   54  A    between atoms: _152  and  _153
REMARK   55  A    between atoms: _152  and  _155
REMARK   56  A    between atoms: _155  and  _156
REMARK   57  A    between atoms: _156  and  _157
REMARK   58  A    between atoms: _157  and  _158
REMARK   59  A    between atoms: _167  and  _169
REMARK   60  A    between atoms: _169  and  _170
REMARK   61  A    between atoms: _169  and  _172
REMARK   62  A    between atoms: _175  and  _177
REMARK   63  A    between atoms: _177  and  _178
REMARK   64  A    between atoms: _177  and  _180
REMARK   65  A    between atoms: _180  and  _181
REMARK   66  A    between atoms: _181  and  _182
REMARK   67  A    between atoms: _182  and  _183
REMARK   68  A    between atoms: _193  and  _194
REMARK   69  A    between atoms: _199  and  _201
REMARK   70  A    between atoms: _201  and  _202
REMARK   71  A    between atoms: _201  and  _204
REMARK   72  A    between atoms: _206  and  _208
REMARK   73  A    between atoms: _208  and  _209
REMARK   74  A    between atoms: _208  and  _211
REMARK   75  A    between atoms: _211  and  _212
REMARK   76  A    between atoms: _212  and  _213
REMARK   77  A    between atoms: _217  and  _218
REMARK   78  A    between atoms: _224  and  _225
REMARK   79  A    between atoms: _230  and  _232
REMARK   80  A    between atoms: _232  and  _233
REMARK   81  A    between atoms: _232  and  _235
REMARK   82  A    between atoms: _235  and  _236
REMARK   83  A    between atoms: _238  and  _240
REMARK   84  A    between atoms: _240  and  _241
REMARK   85  A    between atoms: _240  and  _243
REMARK   86  A    between atoms: _243  and  _244
REMARK   87  A    between atoms: _247  and  _249
REMARK   88  A    between atoms: _249  and  _250
REMARK   89  A    between atoms: _249  and  _252
REMARK   90  A    between atoms: _254  and  _256
REMARK   91  A    between atoms: _256  and  _257
REMARK   92  A    between atoms: _256  and  _259
REMARK   93  A    between atoms: _259  and  _260
REMARK   94  A    between atoms: _263  and  _265
REMARK   95  A    between atoms: _265  and  _266
REMARK   96  A    between atoms: _265  and  _268
REMARK   97  A    between atoms: _268  and  _269
REMARK   98  A    between atoms: _272  and  _274
REMARK   99  A    between atoms: _274  and  _275
REMARK  100  A    between atoms: _274  and  _277
REMARK  101  A    between atoms: _277  and  _278
REMARK                            x       y       z     vdW  Elec       q    Type
REMARK                         _______ _______ _______ _____ _____    ______ ____
ROOT
ATOM      1  CA  CYS A   3      89.466  96.226 -38.108  0.00  0.00    +0.160 C 
ENDROOT
BRANCH   1   3
ATOM      2  C   ASP A   2      88.767  98.438 -38.849  0.00  0.00    +0.241 C 
ATOM      3  N   CYS A   3      88.483  97.297 -38.225  0.00  0.00    -0.296 N 
ATOM      4  H   CYS A   3      87.538  97.166 -37.811  0.00  0.00    +0.150 HD
ATOM      5  O   ASP A   2      89.870  98.673 -39.353  0.00  0.00    -0.273 OA
BRANCH   2   6
ATOM      6  CA  ASP A   2      87.655  99.487 -38.899  0.00  0.00    +0.160 C 
BRANCH   6   8
ATOM      7  C   SER A   1      85.354  98.701 -39.183  0.00  0.00    +0.241 C 
ATOM      8  N   ASP A   2      86.377  98.998 -38.386  0.00  0.00    -0.297 N 
ATOM      9  H   ASP A   2      86.263  98.878 -37.359  0.00  0.00    +0.150 HD
ATOM     10  O   SER A   1      85.414  98.754 -40.415  0.00  0.00    -0.274 OA
BRANCH   7  11
ATOM     11  CA  SER A   1      84.066  98.282 -38.474  0.00  0.00    +0.174 C 
BRANCH  11  12
ATOM     12  N   SER A   1      82.878  98.463 -39.303  0.00  0.00    -0.236 NA
ATOM     13  H   SER A   1      82.676  97.779 -40.060  0.00  0.00    +0.142 HD
ENDBRANCH  11  12
BRANCH  11  14
ATOM     14  CB  SER A   1      84.170  96.833 -37.989  0.00  0.00    +0.163 C 
BRANCH  14  15
ATOM     15  OG  SER A   1      83.165  96.561 -37.023  0.00  0.00    -0.380 OA
ATOM     16  H   SER A   1      83.246  95.622 -36.720  0.00  0.00    +0.211 HD
ENDBRANCH  14  15
ENDBRANCH  11  14
ENDBRANCH   7  11
ENDBRANCH   6   8
BRANCH   6  17
ATOM     17  CB  ASP A   2      88.094 100.709 -38.093  0.00  0.00    +0.143 C 
BRANCH  17  18
ATOM     18  CG  ASP A   2      87.175 101.899 -38.293  0.00  0.00    +0.367 C 
ATOM     19  OD2 ASP A   2      86.946 102.637 -37.314  0.00  0.00    -0.246 OA
ATOM     20  OD1 ASP A   2      86.692 102.089 -39.426  0.00  0.00    -0.246 OA
ENDBRANCH  17  18
ENDBRANCH   6  17
ENDBRANCH   2   6
ENDBRANCH   1   3
BRANCH   1  21
ATOM     21  C   CYS A   3      88.745  94.890 -38.111  0.00  0.00    +0.242 C 
ATOM     22  O   CYS A   3      87.521  94.836 -37.995  0.00  0.00    -0.273 OA
ATOM     23  N   THR A   4      89.512  93.815 -38.282  0.00  0.00    -0.295 N 
ATOM     24  H   THR A   4      90.534  93.944 -38.425  0.00  0.00    +0.150 HD
BRANCH  23  25
ATOM     25  CA  THR A   4      88.968  92.466 -38.275  0.00  0.00    +0.176 C 
BRANCH  25  26
ATOM     26  C   THR A   4      89.382  91.788 -36.992  0.00  0.00    +0.243 C 
ATOM     27  N   THR A   5      88.487  90.987 -36.423  0.00  0.00    -0.296 N 
ATOM     28  H   THR A   5      87.571  90.829 -36.888  0.00  0.00    +0.150 HD
ATOM     29  O   THR A   4      90.491  92.002 -36.512  0.00  0.00    -0.273 OA
BRANCH  27  30
ATOM     30  CA  THR A   5      88.773  90.328 -35.156  0.00  0.00    +0.164 C 
BRANCH  30  31
ATOM     31  C   THR A   5      88.807  88.814 -35.360  0.00  0.00    +0.229 C 
ATOM     32  O   THR A   5      87.896  88.249 -35.961  0.00  0.00    -0.286 OA
ENDBRANCH  30  31
BRANCH  30  33
ATOM     33  CB  THR A   5      87.720  90.689 -34.099  0.00  0.00    +0.136 C 
ATOM     34  CG2 THR A   5      87.979  89.932 -32.811  0.00  0.00    +0.034 C 
BRANCH  33  35
ATOM     35  OG1 THR A   5      87.788  92.094 -33.830  0.00  0.00    -0.382 OA
ATOM     36  HG1 THR A   5      87.610  92.597 -34.664  0.00  0.00    +0.210 HD
ENDBRANCH  33  35
ENDBRANCH  30  33
ENDBRANCH  27  30
ENDBRANCH  25  26
BRANCH  25  37
ATOM     37  CB  THR A   4      89.498  91.692 -39.476  0.00  0.00    +0.137 C 
ATOM     38  CG2 THR A   4      89.130  90.217 -39.398  0.00  0.00    +0.034 C 
BRANCH  37  39
ATOM     39  OG1 THR A   4      88.920  92.270 -40.657  0.00  0.00    -0.382 OA
ATOM     40  HG1 THR A   4      89.248  91.785 -41.455  0.00  0.00    +0.210 HD
ENDBRANCH  37  39
ENDBRANCH  25  37
ENDBRANCH  23  25
ENDBRANCH   1  21
BRANCH   1  41
ATOM     41  CB  CYS A   3      90.282  96.375 -36.818  0.00  0.00    +0.098 C 
ATOM     42  SG  CYS A   3      89.368  96.033 -35.285  0.00  0.00    -0.080 S 
ENDBRANCH   1  41
TORSDOF 19
REMARK  Name = ../refined-set-2016/4agp/4agp_pocket.pdb
REMARK  101 active torsions:
REMARK  status: ('A' for Active; 'I' for Inactive)
REMARK    1  A    between atoms: _1  and  _3
REMARK    2  A    between atoms: _3  and  _4
REMARK    3  A    between atoms: _3  and  _6
REMARK    4  A    between atoms: _6  and  _7
REMARK    5  A    between atoms: _12  and  _13
REMARK    6  A    between atoms: _15  and  _17
REMARK    7  A    between atoms: _17  and  _18
REMARK    8  A    between atoms: _17  and  _20
REMARK    9  A    between atoms: _20  and  _21
REMARK   10  A    between atoms: _27  and  _29
REMARK   11  A    between atoms: _29  and  _30
REMARK   12  A    between atoms: _29  and  _32
REMARK   13  A    between atoms: _32  and  _33
REMARK   14  A    between atoms: _33  and  _34
REMARK   15  A    between atoms: _34  and  _35
REMARK   16  A    between atoms: _44  and  _46
REMARK   17  A    between atoms: _46  and  _47
REMARK   18  A    between atoms: _46  and  _49
REMARK   19  A    between atoms: _49  and  _50
REMARK   20  A    between atoms: _50  and  _51
REMARK   21  A    between atoms: _56  and  _58
REMARK   22  A    between atoms: _58  and  _59
REMARK   23  A    between atoms: _58  and  _61
REMARK   24  A    between atoms: _61  and  _62
REMARK   25  A    between atoms: _65  and  _67
REMARK   26  A    between atoms: _67  and  _68
REMARK   27  A    between atoms: _67  and  _70
REMARK   28  A    between atoms: _70  and  _71
REMARK   29  A    between atoms: _81  and  _83
REMARK   30  A    between atoms: _83  and  _84
REMARK   31  A    between atoms: _83  and  _86
REMARK   32  A    between atoms: _89  and  _91
REMARK   33  A    between atoms: _91  and  _92
REMARK   34  A    between atoms: _91  and  _94
REMARK   35  A    between atoms: _94  and  _95
REMARK   36  A    between atoms: _98  and  _100
REMARK   37  A    between atoms: _100  and  _101
REMARK   38  A    between atoms: _100  and  _103
REMARK   39  A    between atoms: _103  and  _104
REMARK   40  A    between atoms: _106  and  _108
REMARK   41  A    between atoms: _108  and  _109
REMARK   42  A    between atoms: _108  and  _111
REMARK   43  A    between atoms: _111  and  _112
REMARK   44  A    between atoms: _116  and  _117
REMARK   45  A    between atoms: _123  and  _124
REMARK   46  A    between atoms: _130  and  _131
REMARK   47  A    between atoms: _136  and  _138
REMARK   48  A    between atoms: _138  and  _139
REMARK   49  A    between atoms: _141  and  _143
REMARK   50  A    between atoms: _143  and  _144
REMARK   51  A    between atoms: _143  and  _146
REMARK   52  A    between atoms: _146  and  _147
REMARK   53  A    between atoms: _150  and  _152
REMARK   54  A    between atoms: _152  and  _153
REMARK   55  A    between atoms: _152  and  _155
REMARK   56  A    between atoms: _155  and  _156
REMARK   57  A    between atoms: _156  and  _157
REMARK   58  A    between atoms: _157  and  _158
REMARK   59  A    between atoms: _167  and  _169
REMARK   60  A    between atoms: _169  and  _170
REMARK   61  A    between atoms: _169  and  _172
REMARK   62  A    between atoms: _175  and  _177
REMARK   63  A    between atoms: _177  and  _178
REMARK   64  A    between atoms: _177  and  _180
REMARK   65  A    between atoms: _180  and  _181
REMARK   66  A    between atoms: _181  and  _182
REMARK   67  A    between atoms: _182  and  _183
REMARK   68  A    between atoms: _193  and  _194
REMARK   69  A    between atoms: _199  and  _201
REMARK   70  A    between atoms: _201  and  _202
REMARK   71  A    between atoms: _201  and  _204
REMARK   72  A    between atoms: _206  and  _208
REMARK   73  A    between atoms: _208  and  _209
REMARK   74  A    between atoms: _208  and  _211
REMARK   75  A    between atoms: _211  and  _212
REMARK   76  A    between atoms: _212  and  _213
REMARK   77  A    between atoms: _217  and  _218
REMARK   78  A    between atoms: _224  and  _225
REMARK   79  A    between atoms: _230  and  _232
REMARK   80  A    between atoms: _232  and  _233
REMARK   81  A    between atoms: _232  and  _235
REMARK   82  A    between atoms: _235  and  _236
REMARK   83  A    between atoms: _238  and  _240
REMARK   84  A    between atoms: _240  and  _241
REMARK   85  A    between atoms: _240  and  _243
REMARK   86  A    between atoms: _243  and  _244
REMARK   87  A    between atoms: _247  and  _249
REMARK   88  A    between atoms: _249  and  _250
REMARK   89  A    between atoms: _249  and  _252
REMARK   90  A    between atoms: _254  and  _256
REMARK   91  A    between atoms: _256  and  _257
REMARK   92  A    between atoms: _256  and  _259
REMARK   93  A    between atoms: _259  and  _260
REMARK   94  A    between atoms: _263  and  _265
REMARK   95  A    between atoms: _265  and  _266
REMARK   96  A    between atoms: _265  and  _268
REMARK   97  A    between atoms: _268  and  _269
REMARK   98  A    between atoms: _272  and  _274
REMARK   99  A    between atoms: _274  and  _275
REMARK  100  A    between atoms: _274  and  _277
REMARK  101  A    between atoms: _277  and  _278
REMARK                            x       y       z     vdW  Elec       q    Type
REMARK                         _______ _______ _______ _____ _____    ______ ____
ROOT
ATOM      1  CA  LEU A   1     100.379  87.831 -42.218  0.00  0.00    +0.133 C 
ENDROOT
BRANCH   1   2
ATOM      2  N   LEU A   1     101.167  87.560 -41.025  0.00  0.00    -0.239 NA
ATOM      3  H   LEU A   1     101.890  88.252 -40.740  0.00  0.00    +0.142 HD
ENDBRANCH   1   2
BRANCH   1   4
ATOM      4  C   LEU A   1     101.174  87.222 -43.367  0.00  0.00    +0.224 C 
ATOM      5  O   LEU A   1     102.372  87.476 -43.492  0.00  0.00    -0.287 OA
ENDBRANCH   1   4
BRANCH   1   6
ATOM      6  CB  LEU A   1     100.224  89.346 -42.401  0.00  0.00    +0.025 C 
BRANCH   6   7
ATOM      7  CG  LEU A   1      99.214  89.811 -43.442  0.00  0.00    +0.002 C 
ATOM      8  CD2 LEU A   1      97.801  89.485 -42.989  0.00  0.00    +0.000 C 
ATOM      9  CD1 LEU A   1      99.381  91.312 -43.731  0.00  0.00    +0.000 C 
ENDBRANCH   6   7
ENDBRANCH   1   6
TORSDOF 4
REMARK  Name = ../refined-set-2016/4agp/4agp_pocket.pdb
REMARK  101 active torsions:
REMARK  status: ('A' for Active; 'I' for Inactive)
REMARK    1  A    between atoms: _1  and  _3
REMARK    2  A    between atoms: _3  and  _4
REMARK    3  A    between atoms: _3  and  _6
REMARK    4  A    between atoms: _6  and  _7
REMARK    5  A    between atoms: _12  and  _13
REMARK    6  A    between atoms: _15  and  _17
REMARK    7  A    between atoms: _17  and  _18
REMARK    8  A    between atoms: _17  and  _20
REMARK    9  A    between atoms: _20  and  _21
REMARK   10  A    between atoms: _27  and  _29
REMARK   11  A    between atoms: _29  and  _30
REMARK   12  A    between atoms: _29  and  _32
REMARK   13  A    between atoms: _32  and  _33
REMARK   14  A    between atoms: _33  and  _34
REMARK   15  A    between atoms: _34  and  _35
REMARK   16  A    between atoms: _44  and  _46
REMARK   17  A    between atoms: _46  and  _47
REMARK   18  A    between atoms: _46  and  _49
REMARK   19  A    between atoms: _49  and  _50
REMARK   20  A    between atoms: _50  and  _51
REMARK   21  A    between atoms: _56  and  _58
REMARK   22  A    between atoms: _58  and  _59
REMARK   23  A    between atoms: _58  and  _61
REMARK   24  A    between atoms: _61  and  _62
REMARK   25  A    between atoms: _65  and  _67
REMARK   26  A    between atoms: _67  and  _68
REMARK   27  A    between atoms: _67  and  _70
REMARK   28  A    between atoms: _70  and  _71
REMARK   29  A    between atoms: _81  and  _83
REMARK   30  A    between atoms: _83  and  _84
REMARK   31  A    between atoms: _83  and  _86
REMARK   32  A    between atoms: _89  and  _91
REMARK   33  A    between atoms: _91  and  _92
REMARK   34  A    between atoms: _91  and  _94
REMARK   35  A    between atoms: _94  and  _95
REMARK   36  A    between atoms: _98  and  _100
REMARK   37  A    between atoms: _100  and  _101
REMARK   38  A    between atoms: _100  and  _103
REMARK   39  A    between atoms: _103  and  _104
REMARK   40  A    between atoms: _106  and  _108
REMARK   41  A    between atoms: _108  and  _109
REMARK   42  A    between atoms: _108  and  _111
REMARK   43  A    between atoms: _111  and  _112
REMARK   44  A    between atoms: _116  and  _117
REMARK   45  A    between atoms: _123  and  _124
REMARK   46  A    between atoms: _130  and  _131
REMARK   47  A    between atoms: _136  and  _138
REMARK   48  A    between atoms: _138  and  _139
REMARK   49  A    between atoms: _141  and  _143
REMARK   50  A    between atoms: _143  and  _144
REMARK   51  A    between atoms: _143  and  _146
REMARK   52  A    between atoms: _146  and  _147
REMARK   53  A    between atoms: _150  and  _152
REMARK   54  A    between atoms: _152  and  _153
REMARK   55  A    between atoms: _152  and  _155
REMARK   56  A    between atoms: _155  and  _156
REMARK   57  A    between atoms: _156  and  _157
REMARK   58  A    between atoms: _157  and  _158
REMARK   59  A    between atoms: _167  and  _169
REMARK   60  A    between atoms: _169  and  _170
REMARK   61  A    between atoms: _169  and  _172
REMARK   62  A    between atoms: _175  and  _177
REMARK   63  A    between atoms: _177  and  _178
REMARK   64  A    between atoms: _177  and  _180
REMARK   65  A    between atoms: _180  and  _181
REMARK   66  A    between atoms: _181  and  _182
REMARK   67  A    between atoms: _182  and  _183
REMARK   68  A    between atoms: _193  and  _194
REMARK   69  A    between atoms: _199  and  _201
REMARK   70  A    between atoms: _201  and  _202
REMARK   71  A    between atoms: _201  and  _204
REMARK   72  A    between atoms: _206  and  _208
REMARK   73  A    between atoms: _208  and  _209
REMARK   74  A    between atoms: _208  and  _211
REMARK   75  A    between atoms: _211  and  _212
REMARK   76  A    between atoms: _212  and  _213
REMARK   77  A    between atoms: _217  and  _218
REMARK   78  A    between atoms: _224  and  _225
REMARK   79  A    between atoms: _230  and  _232
REMARK   80  A    between atoms: _232  and  _233
REMARK   81  A    between atoms: _232  and  _235
REMARK   82  A    between atoms: _235  and  _236
REMARK   83  A    between atoms: _238  and  _240
REMARK   84  A    between atoms: _240  and  _241
REMARK   85  A    between atoms: _240  and  _243
REMARK   86  A    between atoms: _243  and  _244
REMARK   87  A    between atoms: _247  and  _249
REMARK   88  A    between atoms: _249  and  _250
REMARK   89  A    between atoms: _249  and  _252
REMARK   90  A    between atoms: _254  and  _256
REMARK   91  A    between atoms: _256  and  _257
REMARK   92  A    between atoms: _256  and  _259
REMARK   93  A    between atoms: _259  and  _260
REMARK   94  A    between atoms: _263  and  _265
REMARK   95  A    between atoms: _265  and  _266
REMARK   96  A    between atoms: _265  and  _268
REMARK   97  A    between atoms: _268  and  _269
REMARK   98  A    between atoms: _272  and  _274
REMARK   99  A    between atoms: _274  and  _275
REMARK  100  A    between atoms: _274  and  _277
REMARK  101  A    between atoms: _277  and  _278
REMARK                            x       y       z     vdW  Elec       q    Type
REMARK                         _______ _______ _______ _____ _____    ______ ____
ROOT
ATOM      1  O   HOH     1     100.414 100.360 -46.199  0.00  0.00    +0.000 OA
ENDROOT
TORSDOF 0
REMARK  Name = ../refined-set-2016/4agp/4agp_pocket.pdb
REMARK  101 active torsions:
REMARK  status: ('A' for Active; 'I' for Inactive)
REMARK    1  A    between atoms: _1  and  _3
REMARK    2  A    between atoms: _3  and  _4
REMARK    3  A    between atoms: _3  and  _6
REMARK    4  A    between atoms: _6  and  _7
REMARK    5  A    between atoms: _12  and  _13
REMARK    6  A    between atoms: _15  and  _17
REMARK    7  A    between atoms: _17  and  _18
REMARK    8  A    between atoms: _17  and  _20
REMARK    9  A    between atoms: _20  and  _21
REMARK   10  A    between atoms: _27  and  _29
REMARK   11  A    between atoms: _29  and  _30
REMARK   12  A    between atoms: _29  and  _32
REMARK   13  A    between atoms: _32  and  _33
REMARK   14  A    between atoms: _33  and  _34
REMARK   15  A    between atoms: _34  and  _35
REMARK   16  A    between atoms: _44  and  _46
REMARK   17  A    between atoms: _46  and  _47
REMARK   18  A    between atoms: _46  and  _49
REMARK   19  A    between atoms: _49  and  _50
REMARK   20  A    between atoms: _50  and  _51
REMARK   21  A    between atoms: _56  and  _58
REMARK   22  A    between atoms: _58  and  _59
REMARK   23  A    between atoms: _58  and  _61
REMARK   24  A    between atoms: _61  and  _62
REMARK   25  A    between atoms: _65  and  _67
REMARK   26  A    between atoms: _67  and  _68
REMARK   27  A    between atoms: _67  and  _70
REMARK   28  A    between atoms: _70  and  _71
REMARK   29  A    between atoms: _81  and  _83
REMARK   30  A    between atoms: _83  and  _84
REMARK   31  A    between atoms: _83  and  _86
REMARK   32  A    between atoms: _89  and  _91
REMARK   33  A    between atoms: _91  and  _92
REMARK   34  A    between atoms: _91  and  _94
REMARK   35  A    between atoms: _94  and  _95
REMARK   36  A    between atoms: _98  and  _100
REMARK   37  A    between atoms: _100  and  _101
REMARK   38  A    between atoms: _100  and  _103
REMARK   39  A    between atoms: _103  and  _104
REMARK   40  A    between atoms: _106  and  _108
REMARK   41  A    between atoms: _108  and  _109
REMARK   42  A    between atoms: _108  and  _111
REMARK   43  A    between atoms: _111  and  _112
REMARK   44  A    between atoms: _116  and  _117
REMARK   45  A    between atoms: _123  and  _124
REMARK   46  A    between atoms: _130  and  _131
REMARK   47  A    between atoms: _136  and  _138
REMARK   48  A    between atoms: _138  and  _139
REMARK   49  A    between atoms: _141  and  _143
REMARK   50  A    between atoms: _143  and  _144
REMARK   51  A    between atoms: _143  and  _146
REMARK   52  A    between atoms: _146  and  _147
REMARK   53  A    between atoms: _150  and  _152
REMARK   54  A    between atoms: _152  and  _153
REMARK   55  A    between atoms: _152  and  _155
REMARK   56  A    between atoms: _155  and  _156
REMARK   57  A    between atoms: _156  and  _157
REMARK   58  A    between atoms: _157  and  _158
REMARK   59  A    between atoms: _167  and  _169
REMARK   60  A    between atoms: _169  and  _170
REMARK   61  A    between atoms: _169  and  _172
REMARK   62  A    between atoms: _175  and  _177
REMARK   63  A    between atoms: _177  and  _178
REMARK   64  A    between atoms: _177  and  _180
REMARK   65  A    between atoms: _180  and  _181
REMARK   66  A    between atoms: _181  and  _182
REMARK   67  A    between atoms: _182  and  _183
REMARK   68  A    between atoms: _193  and  _194
REMARK   69  A    between atoms: _199  and  _201
REMARK   70  A    between atoms: _201  and  _202
REMARK   71  A    between atoms: _201  and  _204
REMARK   72  A    between atoms: _206  and  _208
REMARK   73  A    between atoms: _208  and  _209
REMARK   74  A    between atoms: _208  and  _211
REMARK   75  A    between atoms: _211  and  _212
REMARK   76  A    between atoms: _212  and  _213
REMARK   77  A    between atoms: _217  and  _218
REMARK   78  A    between atoms: _224  and  _225
REMARK   79  A    between atoms: _230  and  _232
REMARK   80  A    between atoms: _232  and  _233
REMARK   81  A    between atoms: _232  and  _235
REMARK   82  A    between atoms: _235  and  _236
REMARK   83  A    between atoms: _238  and  _240
REMARK   84  A    between atoms: _240  and  _241
REMARK   85  A    between atoms: _240  and  _243
REMARK   86  A    between atoms: _243  and  _244
REMARK   87  A    between atoms: _247  and  _249
REMARK   88  A    between atoms: _249  and  _250
REMARK   89  A    between atoms: _249  and  _252
REMARK   90  A    between atoms: _254  and  _256
REMARK   91  A    between atoms: _256  and  _257
REMARK   92  A    between atoms: _256  and  _259
REMARK   93  A    between atoms: _259  and  _260
REMARK   94  A    between atoms: _263  and  _265
REMARK   95  A    between atoms: _265  and  _266
REMARK   96  A    between atoms: _265  and  _268
REMARK   97  A    between atoms: _268  and  _269
REMARK   98  A    between atoms: _272  and  _274
REMARK   99  A    between atoms: _274  and  _275
REMARK  100  A    between atoms: _274  and  _277
REMARK  101  A    between atoms: _277  and  _278
REMARK                            x       y       z     vdW  Elec       q    Type
REMARK                         _______ _______ _______ _____ _____    ______ ____
ROOT
ATOM      1  O   HOH     1      95.546 102.649 -40.083  0.00  0.00    +0.000 OA
ENDROOT
TORSDOF 0
REMARK  Name = ../refined-set-2016/4agp/4agp_pocket.pdb
REMARK  101 active torsions:
REMARK  status: ('A' for Active; 'I' for Inactive)
REMARK    1  A    between atoms: _1  and  _3
REMARK    2  A    between atoms: _3  and  _4
REMARK    3  A    between atoms: _3  and  _6
REMARK    4  A    between atoms: _6  and  _7
REMARK    5  A    between atoms: _12  and  _13
REMARK    6  A    between atoms: _15  and  _17
REMARK    7  A    between atoms: _17  and  _18
REMARK    8  A    between atoms: _17  and  _20
REMARK    9  A    between atoms: _20  and  _21
REMARK   10  A    between atoms: _27  and  _29
REMARK   11  A    between atoms: _29  and  _30
REMARK   12  A    between atoms: _29  and  _32
REMARK   13  A    between atoms: _32  and  _33
REMARK   14  A    between atoms: _33  and  _34
REMARK   15  A    between atoms: _34  and  _35
REMARK   16  A    between atoms: _44  and  _46
REMARK   17  A    between atoms: _46  and  _47
REMARK   18  A    between atoms: _46  and  _49
REMARK   19  A    between atoms: _49  and  _50
REMARK   20  A    between atoms: _50  and  _51
REMARK   21  A    between atoms: _56  and  _58
REMARK   22  A    between atoms: _58  and  _59
REMARK   23  A    between atoms: _58  and  _61
REMARK   24  A    between atoms: _61  and  _62
REMARK   25  A    between atoms: _65  and  _67
REMARK   26  A    between atoms: _67  and  _68
REMARK   27  A    between atoms: _67  and  _70
REMARK   28  A    between atoms: _70  and  _71
REMARK   29  A    between atoms: _81  and  _83
REMARK   30  A    between atoms: _83  and  _84
REMARK   31  A    between atoms: _83  and  _86
REMARK   32  A    between atoms: _89  and  _91
REMARK   33  A    between atoms: _91  and  _92
REMARK   34  A    between atoms: _91  and  _94
REMARK   35  A    between atoms: _94  and  _95
REMARK   36  A    between atoms: _98  and  _100
REMARK   37  A    between atoms: _100  and  _101
REMARK   38  A    between atoms: _100  and  _103
REMARK   39  A    between atoms: _103  and  _104
REMARK   40  A    between atoms: _106  and  _108
REMARK   41  A    between atoms: _108  and  _109
REMARK   42  A    between atoms: _108  and  _111
REMARK   43  A    between atoms: _111  and  _112
REMARK   44  A    between atoms: _116  and  _117
REMARK   45  A    between atoms: _123  and  _124
REMARK   46  A    between atoms: _130  and  _131
REMARK   47  A    between atoms: _136  and  _138
REMARK   48  A    between atoms: _138  and  _139
REMARK   49  A    between atoms: _141  and  _143
REMARK   50  A    between atoms: _143  and  _144
REMARK   51  A    between atoms: _143  and  _146
REMARK   52  A    between atoms: _146  and  _147
REMARK   53  A    between atoms: _150  and  _152
REMARK   54  A    between atoms: _152  and  _153
REMARK   55  A    between atoms: _152  and  _155
REMARK   56  A    between atoms: _155  and  _156
REMARK   57  A    between atoms: _156  and  _157
REMARK   58  A    between atoms: _157  and  _158
REMARK   59  A    between atoms: _167  and  _169
REMARK   60  A    between atoms: _169  and  _170
REMARK   61  A    between atoms: _169  and  _172
REMARK   62  A    between atoms: _175  and  _177
REMARK   63  A    between atoms: _177  and  _178
REMARK   64  A    between atoms: _177  and  _180
REMARK   65  A    between atoms: _180  and  _181
REMARK   66  A    between atoms: _181  and  _182
REMARK   67  A    between atoms: _182  and  _183
REMARK   68  A    between atoms: _193  and  _194
REMARK   69  A    between atoms: _199  and  _201
REMARK   70  A    between atoms: _201  and  _202
REMARK   71  A    between atoms: _201  and  _204
REMARK   72  A    between atoms: _206  and  _208
REMARK   73  A    between atoms: _208  and  _209
REMARK   74  A    between atoms: _208  and  _211
REMARK   75  A    between atoms: _211  and  _212
REMARK   76  A    between atoms: _212  and  _213
REMARK   77  A    between atoms: _217  and  _218
REMARK   78  A    between atoms: _224  and  _225
REMARK   79  A    between atoms: _230  and  _232
REMARK   80  A    between atoms: _232  and  _233
REMARK   81  A    between atoms: _232  and  _235
REMARK   82  A    between atoms: _235  and  _236
REMARK   83  A    between atoms: _238  and  _240
REMARK   84  A    between atoms: _240  and  _241
REMARK   85  A    between atoms: _240  and  _243
REMARK   86  A    between atoms: _243  and  _244
REMARK   87  A    between atoms: _247  and  _249
REMARK   88  A    between atoms: _249  and  _250
REMARK   89  A    between atoms: _249  and  _252
REMARK   90  A    between atoms: _254  and  _256
REMARK   91  A    between atoms: _256  and  _257
REMARK   92  A    between atoms: _256  and  _259
REMARK   93  A    between atoms: _259  and  _260
REMARK   94  A    between atoms: _263  and  _265
REMARK   95  A    between atoms: _265  and  _266
REMARK   96  A    between atoms: _265  and  _268
REMARK   97  A    between atoms: _268  and  _269
REMARK   98  A    between atoms: _272  and  _274
REMARK   99  A    between atoms: _274  and  _275
REMARK  100  A    between atoms: _274  and  _277
REMARK  101  A    between atoms: _277  and  _278
REMARK                            x       y       z     vdW  Elec       q    Type
REMARK                         _______ _______ _______ _____ _____    ______ ____
ROOT
ATOM      1  O   HOH     1      95.468 105.182 -40.678  0.00  0.00    +0.000 OA
ENDROOT
TORSDOF 0
REMARK  Name = ../refined-set-2016/4agp/4agp_pocket.pdb
REMARK  101 active torsions:
REMARK  status: ('A' for Active; 'I' for Inactive)
REMARK    1  A    between atoms: _1  and  _3
REMARK    2  A    between atoms: _3  and  _4
REMARK    3  A    between atoms: _3  and  _6
REMARK    4  A    between atoms: _6  and  _7
REMARK    5  A    between atoms: _12  and  _13
REMARK    6  A    between atoms: _15  and  _17
REMARK    7  A    between atoms: _17  and  _18
REMARK    8  A    between atoms: _17  and  _20
REMARK    9  A    between atoms: _20  and  _21
REMARK   10  A    between atoms: _27  and  _29
REMARK   11  A    between atoms: _29  and  _30
REMARK   12  A    between atoms: _29  and  _32
REMARK   13  A    between atoms: _32  and  _33
REMARK   14  A    between atoms: _33  and  _34
REMARK   15  A    between atoms: _34  and  _35
REMARK   16  A    between atoms: _44  and  _46
REMARK   17  A    between atoms: _46  and  _47
REMARK   18  A    between atoms: _46  and  _49
REMARK   19  A    between atoms: _49  and  _50
REMARK   20  A    between atoms: _50  and  _51
REMARK   21  A    between atoms: _56  and  _58
REMARK   22  A    between atoms: _58  and  _59
REMARK   23  A    between atoms: _58  and  _61
REMARK   24  A    between atoms: _61  and  _62
REMARK   25  A    between atoms: _65  and  _67
REMARK   26  A    between atoms: _67  and  _68
REMARK   27  A    between atoms: _67  and  _70
REMARK   28  A    between atoms: _70  and  _71
REMARK   29  A    between atoms: _81  and  _83
REMARK   30  A    between atoms: _83  and  _84
REMARK   31  A    between atoms: _83  and  _86
REMARK   32  A    between atoms: _89  and  _91
REMARK   33  A    between atoms: _91  and  _92
REMARK   34  A    between atoms: _91  and  _94
REMARK   35  A    between atoms: _94  and  _95
REMARK   36  A    between atoms: _98  and  _100
REMARK   37  A    between atoms: _100  and  _101
REMARK   38  A    between atoms: _100  and  _103
REMARK   39  A    between atoms: _103  and  _104
REMARK   40  A    between atoms: _106  and  _108
REMARK   41  A    between atoms: _108  and  _109
REMARK   42  A    between atoms: _108  and  _111
REMARK   43  A    between atoms: _111  and  _112
REMARK   44  A    between atoms: _116  and  _117
REMARK   45  A    between atoms: _123  and  _124
REMARK   46  A    between atoms: _130  and  _131
REMARK   47  A    between atoms: _136  and  _138
REMARK   48  A    between atoms: _138  and  _139
REMARK   49  A    between atoms: _141  and  _143
REMARK   50  A    between atoms: _143  and  _144
REMARK   51  A    between atoms: _143  and  _146
REMARK   52  A    between atoms: _146  and  _147
REMARK   53  A    between atoms: _150  and  _152
REMARK   54  A    between atoms: _152  and  _153
REMARK   55  A    between atoms: _152  and  _155
REMARK   56  A    between atoms: _155  and  _156
REMARK   57  A    between atoms: _156  and  _157
REMARK   58  A    between atoms: _157  and  _158
REMARK   59  A    between atoms: _167  and  _169
REMARK   60  A    between atoms: _169  and  _170
REMARK   61  A    between atoms: _169  and  _172
REMARK   62  A    between atoms: _175  and  _177
REMARK   63  A    between atoms: _177  and  _178
REMARK   64  A    between atoms: _177  and  _180
REMARK   65  A    between atoms: _180  and  _181
REMARK   66  A    between atoms: _181  and  _182
REMARK   67  A    between atoms: _182  and  _183
REMARK   68  A    between atoms: _193  and  _194
REMARK   69  A    between atoms: _199  and  _201
REMARK   70  A    between atoms: _201  and  _202
REMARK   71  A    between atoms: _201  and  _204
REMARK   72  A    between atoms: _206  and  _208
REMARK   73  A    between atoms: _208  and  _209
REMARK   74  A    between atoms: _208  and  _211
REMARK   75  A    between atoms: _211  and  _212
REMARK   76  A    between atoms: _212  and  _213
REMARK   77  A    between atoms: _217  and  _218
REMARK   78  A    between atoms: _224  and  _225
REMARK   79  A    between atoms: _230  and  _232
REMARK   80  A    between atoms: _232  and  _233
REMARK   81  A    between atoms: _232  and  _235
REMARK   82  A    between atoms: _235  and  _236
REMARK   83  A    between atoms: _238  and  _240
REMARK   84  A    between atoms: _240  and  _241
REMARK   85  A    between atoms: _240  and  _243
REMARK   86  A    between atoms: _243  and  _244
REMARK   87  A    between atoms: _247  and  _249
REMARK   88  A    between atoms: _249  and  _250
REMARK   89  A    between atoms: _249  and  _252
REMARK   90  A    between atoms: _254  and  _256
REMARK   91  A    between atoms: _256  and  _257
REMARK   92  A    between atoms: _256  and  _259
REMARK   93  A    between atoms: _259  and  _260
REMARK   94  A    between atoms: _263  and  _265
REMARK   95  A    between atoms: _265  and  _266
REMARK   96  A    between atoms: _265  and  _268
REMARK   97  A    between atoms: _268  and  _269
REMARK   98  A    between atoms: _272  and  _274
REMARK   99  A    between atoms: _274  and  _275
REMARK  100  A    between atoms: _274  and  _277
REMARK  101  A    between atoms: _277  and  _278
REMARK                            x       y       z     vdW  Elec       q    Type
REMARK                         _______ _______ _______ _____ _____    ______ ____
ROOT
ATOM      1  O   HOH     1      92.447  97.876 -40.427  0.00  0.00    +0.000 OA
ENDROOT
TORSDOF 0
REMARK  Name = ../refined-set-2016/4agp/4agp_pocket.pdb
REMARK  101 active torsions:
REMARK  status: ('A' for Active; 'I' for Inactive)
REMARK    1  A    between atoms: _1  and  _3
REMARK    2  A    between atoms: _3  and  _4
REMARK    3  A    between atoms: _3  and  _6
REMARK    4  A    between atoms: _6  and  _7
REMARK    5  A    between atoms: _12  and  _13
REMARK    6  A    between atoms: _15  and  _17
REMARK    7  A    between atoms: _17  and  _18
REMARK    8  A    between atoms: _17  and  _20
REMARK    9  A    between atoms: _20  and  _21
REMARK   10  A    between atoms: _27  and  _29
REMARK   11  A    between atoms: _29  and  _30
REMARK   12  A    between atoms: _29  and  _32
REMARK   13  A    between atoms: _32  and  _33
REMARK   14  A    between atoms: _33  and  _34
REMARK   15  A    between atoms: _34  and  _35
REMARK   16  A    between atoms: _44  and  _46
REMARK   17  A    between atoms: _46  and  _47
REMARK   18  A    between atoms: _46  and  _49
REMARK   19  A    between atoms: _49  and  _50
REMARK   20  A    between atoms: _50  and  _51
REMARK   21  A    between atoms: _56  and  _58
REMARK   22  A    between atoms: _58  and  _59
REMARK   23  A    between atoms: _58  and  _61
REMARK   24  A    between atoms: _61  and  _62
REMARK   25  A    between atoms: _65  and  _67
REMARK   26  A    between atoms: _67  and  _68
REMARK   27  A    between atoms: _67  and  _70
REMARK   28  A    between atoms: _70  and  _71
REMARK   29  A    between atoms: _81  and  _83
REMARK   30  A    between atoms: _83  and  _84
REMARK   31  A    between atoms: _83  and  _86
REMARK   32  A    between atoms: _89  and  _91
REMARK   33  A    between atoms: _91  and  _92
REMARK   34  A    between atoms: _91  and  _94
REMARK   35  A    between atoms: _94  and  _95
REMARK   36  A    between atoms: _98  and  _100
REMARK   37  A    between atoms: _100  and  _101
REMARK   38  A    between atoms: _100  and  _103
REMARK   39  A    between atoms: _103  and  _104
REMARK   40  A    between atoms: _106  and  _108
REMARK   41  A    between atoms: _108  and  _109
REMARK   42  A    between atoms: _108  and  _111
REMARK   43  A    between atoms: _111  and  _112
REMARK   44  A    between atoms: _116  and  _117
REMARK   45  A    between atoms: _123  and  _124
REMARK   46  A    between atoms: _130  and  _131
REMARK   47  A    between atoms: _136  and  _138
REMARK   48  A    between atoms: _138  and  _139
REMARK   49  A    between atoms: _141  and  _143
REMARK   50  A    between atoms: _143  and  _144
REMARK   51  A    between atoms: _143  and  _146
REMARK   52  A    between atoms: _146  and  _147
REMARK   53  A    between atoms: _150  and  _152
REMARK   54  A    between atoms: _152  and  _153
REMARK   55  A    between atoms: _152  and  _155
REMARK   56  A    between atoms: _155  and  _156
REMARK   57  A    between atoms: _156  and  _157
REMARK   58  A    between atoms: _157  and  _158
REMARK   59  A    between atoms: _167  and  _169
REMARK   60  A    between atoms: _169  and  _170
REMARK   61  A    between atoms: _169  and  _172
REMARK   62  A    between atoms: _175  and  _177
REMARK   63  A    between atoms: _177  and  _178
REMARK   64  A    between atoms: _177  and  _180
REMARK   65  A    between atoms: _180  and  _181
REMARK   66  A    between atoms: _181  and  _182
REMARK   67  A    between atoms: _182  and  _183
REMARK   68  A    between atoms: _193  and  _194
REMARK   69  A    between atoms: _199  and  _201
REMARK   70  A    between atoms: _201  and  _202
REMARK   71  A    between atoms: _201  and  _204
REMARK   72  A    between atoms: _206  and  _208
REMARK   73  A    between atoms: _208  and  _209
REMARK   74  A    between atoms: _208  and  _211
REMARK   75  A    between atoms: _211  and  _212
REMARK   76  A    between atoms: _212  and  _213
REMARK   77  A    between atoms: _217  and  _218
REMARK   78  A    between atoms: _224  and  _225
REMARK   79  A    between atoms: _230  and  _232
REMARK   80  A    between atoms: _232  and  _233
REMARK   81  A    between atoms: _232  and  _235
REMARK   82  A    between atoms: _235  and  _236
REMARK   83  A    between atoms: _238  and  _240
REMARK   84  A    between atoms: _240  and  _241
REMARK   85  A    between atoms: _240  and  _243
REMARK   86  A    between atoms: _243  and  _244
REMARK   87  A    between atoms: _247  and  _249
REMARK   88  A    between atoms: _249  and  _250
REMARK   89  A    between atoms: _249  and  _252
REMARK   90  A    between atoms: _254  and  _256
REMARK   91  A    between atoms: _256  and  _257
REMARK   92  A    between atoms: _256  and  _259
REMARK   93  A    between atoms: _259  and  _260
REMARK   94  A    between atoms: _263  and  _265
REMARK   95  A    between atoms: _265  and  _266
REMARK   96  A    between atoms: _265  and  _268
REMARK   97  A    between atoms: _268  and  _269
REMARK   98  A    between atoms: _272  and  _274
REMARK   99  A    between atoms: _274  and  _275
REMARK  100  A    between atoms: _274  and  _277
REMARK  101  A    between atoms: _277  and  _278
REMARK                            x       y       z     vdW  Elec       q    Type
REMARK                         _______ _______ _______ _____ _____    ______ ____
ROOT
ATOM      1  O   HOH     1      93.411 100.941 -40.218  0.00  0.00    +0.000 OA
ENDROOT
TORSDOF 0
REMARK  Name = ../refined-set-2016/4agp/4agp_pocket.pdb
REMARK  101 active torsions:
REMARK  status: ('A' for Active; 'I' for Inactive)
REMARK    1  A    between atoms: _1  and  _3
REMARK    2  A    between atoms: _3  and  _4
REMARK    3  A    between atoms: _3  and  _6
REMARK    4  A    between atoms: _6  and  _7
REMARK    5  A    between atoms: _12  and  _13
REMARK    6  A    between atoms: _15  and  _17
REMARK    7  A    between atoms: _17  and  _18
REMARK    8  A    between atoms: _17  and  _20
REMARK    9  A    between atoms: _20  and  _21
REMARK   10  A    between atoms: _27  and  _29
REMARK   11  A    between atoms: _29  and  _30
REMARK   12  A    between atoms: _29  and  _32
REMARK   13  A    between atoms: _32  and  _33
REMARK   14  A    between atoms: _33  and  _34
REMARK   15  A    between atoms: _34  and  _35
REMARK   16  A    between atoms: _44  and  _46
REMARK   17  A    between atoms: _46  and  _47
REMARK   18  A    between atoms: _46  and  _49
REMARK   19  A    between atoms: _49  and  _50
REMARK   20  A    between atoms: _50  and  _51
REMARK   21  A    between atoms: _56  and  _58
REMARK   22  A    between atoms: _58  and  _59
REMARK   23  A    between atoms: _58  and  _61
REMARK   24  A    between atoms: _61  and  _62
REMARK   25  A    between atoms: _65  and  _67
REMARK   26  A    between atoms: _67  and  _68
REMARK   27  A    between atoms: _67  and  _70
REMARK   28  A    between atoms: _70  and  _71
REMARK   29  A    between atoms: _81  and  _83
REMARK   30  A    between atoms: _83  and  _84
REMARK   31  A    between atoms: _83  and  _86
REMARK   32  A    between atoms: _89  and  _91
REMARK   33  A    between atoms: _91  and  _92
REMARK   34  A    between atoms: _91  and  _94
REMARK   35  A    between atoms: _94  and  _95
REMARK   36  A    between atoms: _98  and  _100
REMARK   37  A    between atoms: _100  and  _101
REMARK   38  A    between atoms: _100  and  _103
REMARK   39  A    between atoms: _103  and  _104
REMARK   40  A    between atoms: _106  and  _108
REMARK   41  A    between atoms: _108  and  _109
REMARK   42  A    between atoms: _108  and  _111
REMARK   43  A    between atoms: _111  and  _112
REMARK   44  A    between atoms: _116  and  _117
REMARK   45  A    between atoms: _123  and  _124
REMARK   46  A    between atoms: _130  and  _131
REMARK   47  A    between atoms: _136  and  _138
REMARK   48  A    between atoms: _138  and  _139
REMARK   49  A    between atoms: _141  and  _143
REMARK   50  A    between atoms: _143  and  _144
REMARK   51  A    between atoms: _143  and  _146
REMARK   52  A    between atoms: _146  and  _147
REMARK   53  A    between atoms: _150  and  _152
REMARK   54  A    between atoms: _152  and  _153
REMARK   55  A    between atoms: _152  and  _155
REMARK   56  A    between atoms: _155  and  _156
REMARK   57  A    between atoms: _156  and  _157
REMARK   58  A    between atoms: _157  and  _158
REMARK   59  A    between atoms: _167  and  _169
REMARK   60  A    between atoms: _169  and  _170
REMARK   61  A    between atoms: _169  and  _172
REMARK   62  A    between atoms: _175  and  _177
REMARK   63  A    between atoms: _177  and  _178
REMARK   64  A    between atoms: _177  and  _180
REMARK   65  A    between atoms: _180  and  _181
REMARK   66  A    between atoms: _181  and  _182
REMARK   67  A    between atoms: _182  and  _183
REMARK   68  A    between atoms: _193  and  _194
REMARK   69  A    between atoms: _199  and  _201
REMARK   70  A    between atoms: _201  and  _202
REMARK   71  A    between atoms: _201  and  _204
REMARK   72  A    between atoms: _206  and  _208
REMARK   73  A    between atoms: _208  and  _209
REMARK   74  A    between atoms: _208  and  _211
REMARK   75  A    between atoms: _211  and  _212
REMARK   76  A    between atoms: _212  and  _213
REMARK   77  A    between atoms: _217  and  _218
REMARK   78  A    between atoms: _224  and  _225
REMARK   79  A    between atoms: _230  and  _232
REMARK   80  A    between atoms: _232  and  _233
REMARK   81  A    between atoms: _232  and  _235
REMARK   82  A    between atoms: _235  and  _236
REMARK   83  A    between atoms: _238  and  _240
REMARK   84  A    between atoms: _240  and  _241
REMARK   85  A    between atoms: _240  and  _243
REMARK   86  A    between atoms: _243  and  _244
REMARK   87  A    between atoms: _247  and  _249
REMARK   88  A    between atoms: _249  and  _250
REMARK   89  A    between atoms: _249  and  _252
REMARK   90  A    between atoms: _254  and  _256
REMARK   91  A    between atoms: _256  and  _257
REMARK   92  A    between atoms: _256  and  _259
REMARK   93  A    between atoms: _259  and  _260
REMARK   94  A    between atoms: _263  and  _265
REMARK   95  A    between atoms: _265  and  _266
REMARK   96  A    between atoms: _265  and  _268
REMARK   97  A    between atoms: _268  and  _269
REMARK   98  A    between atoms: _272  and  _274
REMARK   99  A    between atoms: _274  and  _275
REMARK  100  A    between atoms: _274  and  _277
REMARK  101  A    between atoms: _277  and  _278
REMARK                            x       y       z     vdW  Elec       q    Type
REMARK                         _______ _______ _______ _____ _____    ______ ____
ROOT
ATOM      1  O   HOH     1      99.058 103.896 -39.358  0.00  0.00    +0.000 OA
ENDROOT
TORSDOF 0
REMARK  Name = ../refined-set-2016/4agp/4agp_pocket.pdb
REMARK  101 active torsions:
REMARK  status: ('A' for Active; 'I' for Inactive)
REMARK    1  A    between atoms: _1  and  _3
REMARK    2  A    between atoms: _3  and  _4
REMARK    3  A    between atoms: _3  and  _6
REMARK    4  A    between atoms: _6  and  _7
REMARK    5  A    between atoms: _12  and  _13
REMARK    6  A    between atoms: _15  and  _17
REMARK    7  A    between atoms: _17  and  _18
REMARK    8  A    between atoms: _17  and  _20
REMARK    9  A    between atoms: _20  and  _21
REMARK   10  A    between atoms: _27  and  _29
REMARK   11  A    between atoms: _29  and  _30
REMARK   12  A    between atoms: _29  and  _32
REMARK   13  A    between atoms: _32  and  _33
REMARK   14  A    between atoms: _33  and  _34
REMARK   15  A    between atoms: _34  and  _35
REMARK   16  A    between atoms: _44  and  _46
REMARK   17  A    between atoms: _46  and  _47
REMARK   18  A    between atoms: _46  and  _49
REMARK   19  A    between atoms: _49  and  _50
REMARK   20  A    between atoms: _50  and  _51
REMARK   21  A    between atoms: _56  and  _58
REMARK   22  A    between atoms: _58  and  _59
REMARK   23  A    between atoms: _58  and  _61
REMARK   24  A    between atoms: _61  and  _62
REMARK   25  A    between atoms: _65  and  _67
REMARK   26  A    between atoms: _67  and  _68
REMARK   27  A    between atoms: _67  and  _70
REMARK   28  A    between atoms: _70  and  _71
REMARK   29  A    between atoms: _81  and  _83
REMARK   30  A    between atoms: _83  and  _84
REMARK   31  A    between atoms: _83  and  _86
REMARK   32  A    between atoms: _89  and  _91
REMARK   33  A    between atoms: _91  and  _92
REMARK   34  A    between atoms: _91  and  _94
REMARK   35  A    between atoms: _94  and  _95
REMARK   36  A    between atoms: _98  and  _100
REMARK   37  A    between atoms: _100  and  _101
REMARK   38  A    between atoms: _100  and  _103
REMARK   39  A    between atoms: _103  and  _104
REMARK   40  A    between atoms: _106  and  _108
REMARK   41  A    between atoms: _108  and  _109
REMARK   42  A    between atoms: _108  and  _111
REMARK   43  A    between atoms: _111  and  _112
REMARK   44  A    between atoms: _116  and  _117
REMARK   45  A    between atoms: _123  and  _124
REMARK   46  A    between atoms: _130  and  _131
REMARK   47  A    between atoms: _136  and  _138
REMARK   48  A    between atoms: _138  and  _139
REMARK   49  A    between atoms: _141  and  _143
REMARK   50  A    between atoms: _143  and  _144
REMARK   51  A    between atoms: _143  and  _146
REMARK   52  A    between atoms: _146  and  _147
REMARK   53  A    between atoms: _150  and  _152
REMARK   54  A    between atoms: _152  and  _153
REMARK   55  A    between atoms: _152  and  _155
REMARK   56  A    between atoms: _155  and  _156
REMARK   57  A    between atoms: _156  and  _157
REMARK   58  A    between atoms: _157  and  _158
REMARK   59  A    between atoms: _167  and  _169
REMARK   60  A    between atoms: _169  and  _170
REMARK   61  A    between atoms: _169  and  _172
REMARK   62  A    between atoms: _175  and  _177
REMARK   63  A    between atoms: _177  and  _178
REMARK   64  A    between atoms: _177  and  _180
REMARK   65  A    between atoms: _180  and  _181
REMARK   66  A    between atoms: _181  and  _182
REMARK   67  A    between atoms: _182  and  _183
REMARK   68  A    between atoms: _193  and  _194
REMARK   69  A    between atoms: _199  and  _201
REMARK   70  A    between atoms: _201  and  _202
REMARK   71  A    between atoms: _201  and  _204
REMARK   72  A    between atoms: _206  and  _208
REMARK   73  A    between atoms: _208  and  _209
REMARK   74  A    between atoms: _208  and  _211
REMARK   75  A    between atoms: _211  and  _212
REMARK   76  A    between atoms: _212  and  _213
REMARK   77  A    between atoms: _217  and  _218
REMARK   78  A    between atoms: _224  and  _225
REMARK   79  A    between atoms: _230  and  _232
REMARK   80  A    between atoms: _232  and  _233
REMARK   81  A    between atoms: _232  and  _235
REMARK   82  A    between atoms: _235  and  _236
REMARK   83  A    between atoms: _238  and  _240
REMARK   84  A    between atoms: _240  and  _241
REMARK   85  A    between atoms: _240  and  _243
REMARK   86  A    between atoms: _243  and  _244
REMARK   87  A    between atoms: _247  and  _249
REMARK   88  A    between atoms: _249  and  _250
REMARK   89  A    between atoms: _249  and  _252
REMARK   90  A    between atoms: _254  and  _256
REMARK   91  A    between atoms: _256  and  _257
REMARK   92  A    between atoms: _256  and  _259
REMARK   93  A    between atoms: _259  and  _260
REMARK   94  A    between atoms: _263  and  _265
REMARK   95  A    between atoms: _265  and  _266
REMARK   96  A    between atoms: _265  and  _268
REMARK   97  A    between atoms: _268  and  _269
REMARK   98  A    between atoms: _272  and  _274
REMARK   99  A    between atoms: _274  and  _275
REMARK  100  A    between atoms: _274  and  _277
REMARK  101  A    between atoms: _277  and  _278
REMARK                            x       y       z     vdW  Elec       q    Type
REMARK                         _______ _______ _______ _____ _____    ______ ____
ROOT
ATOM      1  O   HOH     1      99.787 105.980 -40.909  0.00  0.00    +0.000 OA
ENDROOT
TORSDOF 0
REMARK  Name = ../refined-set-2016/4agp/4agp_pocket.pdb
REMARK  101 active torsions:
REMARK  status: ('A' for Active; 'I' for Inactive)
REMARK    1  A    between atoms: _1  and  _3
REMARK    2  A    between atoms: _3  and  _4
REMARK    3  A    between atoms: _3  and  _6
REMARK    4  A    between atoms: _6  and  _7
REMARK    5  A    between atoms: _12  and  _13
REMARK    6  A    between atoms: _15  and  _17
REMARK    7  A    between atoms: _17  and  _18
REMARK    8  A    between atoms: _17  and  _20
REMARK    9  A    between atoms: _20  and  _21
REMARK   10  A    between atoms: _27  and  _29
REMARK   11  A    between atoms: _29  and  _30
REMARK   12  A    between atoms: _29  and  _32
REMARK   13  A    between atoms: _32  and  _33
REMARK   14  A    between atoms: _33  and  _34
REMARK   15  A    between atoms: _34  and  _35
REMARK   16  A    between atoms: _44  and  _46
REMARK   17  A    between atoms: _46  and  _47
REMARK   18  A    between atoms: _46  and  _49
REMARK   19  A    between atoms: _49  and  _50
REMARK   20  A    between atoms: _50  and  _51
REMARK   21  A    between atoms: _56  and  _58
REMARK   22  A    between atoms: _58  and  _59
REMARK   23  A    between atoms: _58  and  _61
REMARK   24  A    between atoms: _61  and  _62
REMARK   25  A    between atoms: _65  and  _67
REMARK   26  A    between atoms: _67  and  _68
REMARK   27  A    between atoms: _67  and  _70
REMARK   28  A    between atoms: _70  and  _71
REMARK   29  A    between atoms: _81  and  _83
REMARK   30  A    between atoms: _83  and  _84
REMARK   31  A    between atoms: _83  and  _86
REMARK   32  A    between atoms: _89  and  _91
REMARK   33  A    between atoms: _91  and  _92
REMARK   34  A    between atoms: _91  and  _94
REMARK   35  A    between atoms: _94  and  _95
REMARK   36  A    between atoms: _98  and  _100
REMARK   37  A    between atoms: _100  and  _101
REMARK   38  A    between atoms: _100  and  _103
REMARK   39  A    between atoms: _103  and  _104
REMARK   40  A    between atoms: _106  and  _108
REMARK   41  A    between atoms: _108  and  _109
REMARK   42  A    between atoms: _108  and  _111
REMARK   43  A    between atoms: _111  and  _112
REMARK   44  A    between atoms: _116  and  _117
REMARK   45  A    between atoms: _123  and  _124
REMARK   46  A    between atoms: _130  and  _131
REMARK   47  A    between atoms: _136  and  _138
REMARK   48  A    between atoms: _138  and  _139
REMARK   49  A    between atoms: _141  and  _143
REMARK   50  A    between atoms: _143  and  _144
REMARK   51  A    between atoms: _143  and  _146
REMARK   52  A    between atoms: _146  and  _147
REMARK   53  A    between atoms: _150  and  _152
REMARK   54  A    between atoms: _152  and  _153
REMARK   55  A    between atoms: _152  and  _155
REMARK   56  A    between atoms: _155  and  _156
REMARK   57  A    between atoms: _156  and  _157
REMARK   58  A    between atoms: _157  and  _158
REMARK   59  A    between atoms: _167  and  _169
REMARK   60  A    between atoms: _169  and  _170
REMARK   61  A    between atoms: _169  and  _172
REMARK   62  A    between atoms: _175  and  _177
REMARK   63  A    between atoms: _177  and  _178
REMARK   64  A    between atoms: _177  and  _180
REMARK   65  A    between atoms: _180  and  _181
REMARK   66  A    between atoms: _181  and  _182
REMARK   67  A    between atoms: _182  and  _183
REMARK   68  A    between atoms: _193  and  _194
REMARK   69  A    between atoms: _199  and  _201
REMARK   70  A    between atoms: _201  and  _202
REMARK   71  A    between atoms: _201  and  _204
REMARK   72  A    between atoms: _206  and  _208
REMARK   73  A    between atoms: _208  and  _209
REMARK   74  A    between atoms: _208  and  _211
REMARK   75  A    between atoms: _211  and  _212
REMARK   76  A    between atoms: _212  and  _213
REMARK   77  A    between atoms: _217  and  _218
REMARK   78  A    between atoms: _224  and  _225
REMARK   79  A    between atoms: _230  and  _232
REMARK   80  A    between atoms: _232  and  _233
REMARK   81  A    between atoms: _232  and  _235
REMARK   82  A    between atoms: _235  and  _236
REMARK   83  A    between atoms: _238  and  _240
REMARK   84  A    between atoms: _240  and  _241
REMARK   85  A    between atoms: _240  and  _243
REMARK   86  A    between atoms: _243  and  _244
REMARK   87  A    between atoms: _247  and  _249
REMARK   88  A    between atoms: _249  and  _250
REMARK   89  A    between atoms: _249  and  _252
REMARK   90  A    between atoms: _254  and  _256
REMARK   91  A    between atoms: _256  and  _257
REMARK   92  A    between atoms: _256  and  _259
REMARK   93  A    between atoms: _259  and  _260
REMARK   94  A    between atoms: _263  and  _265
REMARK   95  A    between atoms: _265  and  _266
REMARK   96  A    between atoms: _265  and  _268
REMARK   97  A    between atoms: _268  and  _269
REMARK   98  A    between atoms: _272  and  _274
REMARK   99  A    between atoms: _274  and  _275
REMARK  100  A    between atoms: _274  and  _277
REMARK  101  A    between atoms: _277  and  _278
REMARK                            x       y       z     vdW  Elec       q    Type
REMARK                         _______ _______ _______ _____ _____    ______ ____
ROOT
ATOM      1  O   HOH     1      96.471  97.954 -50.989  0.00  0.00    +0.000 OA
ENDROOT
TORSDOF 0
REMARK  Name = ../refined-set-2016/4agp/4agp_pocket.pdb
REMARK  101 active torsions:
REMARK  status: ('A' for Active; 'I' for Inactive)
REMARK    1  A    between atoms: _1  and  _3
REMARK    2  A    between atoms: _3  and  _4
REMARK    3  A    between atoms: _3  and  _6
REMARK    4  A    between atoms: _6  and  _7
REMARK    5  A    between atoms: _12  and  _13
REMARK    6  A    between atoms: _15  and  _17
REMARK    7  A    between atoms: _17  and  _18
REMARK    8  A    between atoms: _17  and  _20
REMARK    9  A    between atoms: _20  and  _21
REMARK   10  A    between atoms: _27  and  _29
REMARK   11  A    between atoms: _29  and  _30
REMARK   12  A    between atoms: _29  and  _32
REMARK   13  A    between atoms: _32  and  _33
REMARK   14  A    between atoms: _33  and  _34
REMARK   15  A    between atoms: _34  and  _35
REMARK   16  A    between atoms: _44  and  _46
REMARK   17  A    between atoms: _46  and  _47
REMARK   18  A    between atoms: _46  and  _49
REMARK   19  A    between atoms: _49  and  _50
REMARK   20  A    between atoms: _50  and  _51
REMARK   21  A    between atoms: _56  and  _58
REMARK   22  A    between atoms: _58  and  _59
REMARK   23  A    between atoms: _58  and  _61
REMARK   24  A    between atoms: _61  and  _62
REMARK   25  A    between atoms: _65  and  _67
REMARK   26  A    between atoms: _67  and  _68
REMARK   27  A    between atoms: _67  and  _70
REMARK   28  A    between atoms: _70  and  _71
REMARK   29  A    between atoms: _81  and  _83
REMARK   30  A    between atoms: _83  and  _84
REMARK   31  A    between atoms: _83  and  _86
REMARK   32  A    between atoms: _89  and  _91
REMARK   33  A    between atoms: _91  and  _92
REMARK   34  A    between atoms: _91  and  _94
REMARK   35  A    between atoms: _94  and  _95
REMARK   36  A    between atoms: _98  and  _100
REMARK   37  A    between atoms: _100  and  _101
REMARK   38  A    between atoms: _100  and  _103
REMARK   39  A    between atoms: _103  and  _104
REMARK   40  A    between atoms: _106  and  _108
REMARK   41  A    between atoms: _108  and  _109
REMARK   42  A    between atoms: _108  and  _111
REMARK   43  A    between atoms: _111  and  _112
REMARK   44  A    between atoms: _116  and  _117
REMARK   45  A    between atoms: _123  and  _124
REMARK   46  A    between atoms: _130  and  _131
REMARK   47  A    between atoms: _136  and  _138
REMARK   48  A    between atoms: _138  and  _139
REMARK   49  A    between atoms: _141  and  _143
REMARK   50  A    between atoms: _143  and  _144
REMARK   51  A    between atoms: _143  and  _146
REMARK   52  A    between atoms: _146  and  _147
REMARK   53  A    between atoms: _150  and  _152
REMARK   54  A    between atoms: _152  and  _153
REMARK   55  A    between atoms: _152  and  _155
REMARK   56  A    between atoms: _155  and  _156
REMARK   57  A    between atoms: _156  and  _157
REMARK   58  A    between atoms: _157  and  _158
REMARK   59  A    between atoms: _167  and  _169
REMARK   60  A    between atoms: _169  and  _170
REMARK   61  A    between atoms: _169  and  _172
REMARK   62  A    between atoms: _175  and  _177
REMARK   63  A    between atoms: _177  and  _178
REMARK   64  A    between atoms: _177  and  _180
REMARK   65  A    between atoms: _180  and  _181
REMARK   66  A    between atoms: _181  and  _182
REMARK   67  A    between atoms: _182  and  _183
REMARK   68  A    between atoms: _193  and  _194
REMARK   69  A    between atoms: _199  and  _201
REMARK   70  A    between atoms: _201  and  _202
REMARK   71  A    between atoms: _201  and  _204
REMARK   72  A    between atoms: _206  and  _208
REMARK   73  A    between atoms: _208  and  _209
REMARK   74  A    between atoms: _208  and  _211
REMARK   75  A    between atoms: _211  and  _212
REMARK   76  A    between atoms: _212  and  _213
REMARK   77  A    between atoms: _217  and  _218
REMARK   78  A    between atoms: _224  and  _225
REMARK   79  A    between atoms: _230  and  _232
REMARK   80  A    between atoms: _232  and  _233
REMARK   81  A    between atoms: _232  and  _235
REMARK   82  A    between atoms: _235  and  _236
REMARK   83  A    between atoms: _238  and  _240
REMARK   84  A    between atoms: _240  and  _241
REMARK   85  A    between atoms: _240  and  _243
REMARK   86  A    between atoms: _243  and  _244
REMARK   87  A    between atoms: _247  and  _249
REMARK   88  A    between atoms: _249  and  _250
REMARK   89  A    between atoms: _249  and  _252
REMARK   90  A    between atoms: _254  and  _256
REMARK   91  A    between atoms: _256  and  _257
REMARK   92  A    between atoms: _256  and  _259
REMARK   93  A    between atoms: _259  and  _260
REMARK   94  A    between atoms: _263  and  _265
REMARK   95  A    between atoms: _265  and  _266
REMARK   96  A    between atoms: _265  and  _268
REMARK   97  A    between atoms: _268  and  _269
REMARK   98  A    between atoms: _272  and  _274
REMARK   99  A    between atoms: _274  and  _275
REMARK  100  A    between atoms: _274  and  _277
REMARK  101  A    between atoms: _277  and  _278
REMARK                            x       y       z     vdW  Elec       q    Type
REMARK                         _______ _______ _______ _____ _____    ______ ____
ROOT
ATOM      1  O   HOH     1      93.473 100.235 -48.747  0.00  0.00    +0.000 OA
ENDROOT
TORSDOF 0
REMARK  Name = ../refined-set-2016/4agp/4agp_pocket.pdb
REMARK  101 active torsions:
REMARK  status: ('A' for Active; 'I' for Inactive)
REMARK    1  A    between atoms: _1  and  _3
REMARK    2  A    between atoms: _3  and  _4
REMARK    3  A    between atoms: _3  and  _6
REMARK    4  A    between atoms: _6  and  _7
REMARK    5  A    between atoms: _12  and  _13
REMARK    6  A    between atoms: _15  and  _17
REMARK    7  A    between atoms: _17  and  _18
REMARK    8  A    between atoms: _17  and  _20
REMARK    9  A    between atoms: _20  and  _21
REMARK   10  A    between atoms: _27  and  _29
REMARK   11  A    between atoms: _29  and  _30
REMARK   12  A    between atoms: _29  and  _32
REMARK   13  A    between atoms: _32  and  _33
REMARK   14  A    between atoms: _33  and  _34
REMARK   15  A    between atoms: _34  and  _35
REMARK   16  A    between atoms: _44  and  _46
REMARK   17  A    between atoms: _46  and  _47
REMARK   18  A    between atoms: _46  and  _49
REMARK   19  A    between atoms: _49  and  _50
REMARK   20  A    between atoms: _50  and  _51
REMARK   21  A    between atoms: _56  and  _58
REMARK   22  A    between atoms: _58  and  _59
REMARK   23  A    between atoms: _58  and  _61
REMARK   24  A    between atoms: _61  and  _62
REMARK   25  A    between atoms: _65  and  _67
REMARK   26  A    between atoms: _67  and  _68
REMARK   27  A    between atoms: _67  and  _70
REMARK   28  A    between atoms: _70  and  _71
REMARK   29  A    between atoms: _81  and  _83
REMARK   30  A    between atoms: _83  and  _84
REMARK   31  A    between atoms: _83  and  _86
REMARK   32  A    between atoms: _89  and  _91
REMARK   33  A    between atoms: _91  and  _92
REMARK   34  A    between atoms: _91  and  _94
REMARK   35  A    between atoms: _94  and  _95
REMARK   36  A    between atoms: _98  and  _100
REMARK   37  A    between atoms: _100  and  _101
REMARK   38  A    between atoms: _100  and  _103
REMARK   39  A    between atoms: _103  and  _104
REMARK   40  A    between atoms: _106  and  _108
REMARK   41  A    between atoms: _108  and  _109
REMARK   42  A    between atoms: _108  and  _111
REMARK   43  A    between atoms: _111  and  _112
REMARK   44  A    between atoms: _116  and  _117
REMARK   45  A    between atoms: _123  and  _124
REMARK   46  A    between atoms: _130  and  _131
REMARK   47  A    between atoms: _136  and  _138
REMARK   48  A    between atoms: _138  and  _139
REMARK   49  A    between atoms: _141  and  _143
REMARK   50  A    between atoms: _143  and  _144
REMARK   51  A    between atoms: _143  and  _146
REMARK   52  A    between atoms: _146  and  _147
REMARK   53  A    between atoms: _150  and  _152
REMARK   54  A    between atoms: _152  and  _153
REMARK   55  A    between atoms: _152  and  _155
REMARK   56  A    between atoms: _155  and  _156
REMARK   57  A    between atoms: _156  and  _157
REMARK   58  A    between atoms: _157  and  _158
REMARK   59  A    between atoms: _167  and  _169
REMARK   60  A    between atoms: _169  and  _170
REMARK   61  A    between atoms: _169  and  _172
REMARK   62  A    between atoms: _175  and  _177
REMARK   63  A    between atoms: _177  and  _178
REMARK   64  A    between atoms: _177  and  _180
REMARK   65  A    between atoms: _180  and  _181
REMARK   66  A    between atoms: _181  and  _182
REMARK   67  A    between atoms: _182  and  _183
REMARK   68  A    between atoms: _193  and  _194
REMARK   69  A    between atoms: _199  and  _201
REMARK   70  A    between atoms: _201  and  _202
REMARK   71  A    between atoms: _201  and  _204
REMARK   72  A    between atoms: _206  and  _208
REMARK   73  A    between atoms: _208  and  _209
REMARK   74  A    between atoms: _208  and  _211
REMARK   75  A    between atoms: _211  and  _212
REMARK   76  A    between atoms: _212  and  _213
REMARK   77  A    between atoms: _217  and  _218
REMARK   78  A    between atoms: _224  and  _225
REMARK   79  A    between atoms: _230  and  _232
REMARK   80  A    between atoms: _232  and  _233
REMARK   81  A    between atoms: _232  and  _235
REMARK   82  A    between atoms: _235  and  _236
REMARK   83  A    between atoms: _238  and  _240
REMARK   84  A    between atoms: _240  and  _241
REMARK   85  A    between atoms: _240  and  _243
REMARK   86  A    between atoms: _243  and  _244
REMARK   87  A    between atoms: _247  and  _249
REMARK   88  A    between atoms: _249  and  _250
REMARK   89  A    between atoms: _249  and  _252
REMARK   90  A    between atoms: _254  and  _256
REMARK   91  A    between atoms: _256  and  _257
REMARK   92  A    between atoms: _256  and  _259
REMARK   93  A    between atoms: _259  and  _260
REMARK   94  A    between atoms: _263  and  _265
REMARK   95  A    between atoms: _265  and  _266
REMARK   96  A    between atoms: _265  and  _268
REMARK   97  A    between atoms: _268  and  _269
REMARK   98  A    between atoms: _272  and  _274
REMARK   99  A    between atoms: _274  and  _275
REMARK  100  A    between atoms: _274  and  _277
REMARK  101  A    between atoms: _277  and  _278
REMARK                            x       y       z     vdW  Elec       q    Type
REMARK                         _______ _______ _______ _____ _____    ______ ____
ROOT
ATOM      1  O   HOH     1      96.480  94.585 -52.147  0.00  0.00    +0.000 OA
ENDROOT
TORSDOF 0
REMARK  Name = ../refined-set-2016/4agp/4agp_pocket.pdb
REMARK  101 active torsions:
REMARK  status: ('A' for Active; 'I' for Inactive)
REMARK    1  A    between atoms: _1  and  _3
REMARK    2  A    between atoms: _3  and  _4
REMARK    3  A    between atoms: _3  and  _6
REMARK    4  A    between atoms: _6  and  _7
REMARK    5  A    between atoms: _12  and  _13
REMARK    6  A    between atoms: _15  and  _17
REMARK    7  A    between atoms: _17  and  _18
REMARK    8  A    between atoms: _17  and  _20
REMARK    9  A    between atoms: _20  and  _21
REMARK   10  A    between atoms: _27  and  _29
REMARK   11  A    between atoms: _29  and  _30
REMARK   12  A    between atoms: _29  and  _32
REMARK   13  A    between atoms: _32  and  _33
REMARK   14  A    between atoms: _33  and  _34
REMARK   15  A    between atoms: _34  and  _35
REMARK   16  A    between atoms: _44  and  _46
REMARK   17  A    between atoms: _46  and  _47
REMARK   18  A    between atoms: _46  and  _49
REMARK   19  A    between atoms: _49  and  _50
REMARK   20  A    between atoms: _50  and  _51
REMARK   21  A    between atoms: _56  and  _58
REMARK   22  A    between atoms: _58  and  _59
REMARK   23  A    between atoms: _58  and  _61
REMARK   24  A    between atoms: _61  and  _62
REMARK   25  A    between atoms: _65  and  _67
REMARK   26  A    between atoms: _67  and  _68
REMARK   27  A    between atoms: _67  and  _70
REMARK   28  A    between atoms: _70  and  _71
REMARK   29  A    between atoms: _81  and  _83
REMARK   30  A    between atoms: _83  and  _84
REMARK   31  A    between atoms: _83  and  _86
REMARK   32  A    between atoms: _89  and  _91
REMARK   33  A    between atoms: _91  and  _92
REMARK   34  A    between atoms: _91  and  _94
REMARK   35  A    between atoms: _94  and  _95
REMARK   36  A    between atoms: _98  and  _100
REMARK   37  A    between atoms: _100  and  _101
REMARK   38  A    between atoms: _100  and  _103
REMARK   39  A    between atoms: _103  and  _104
REMARK   40  A    between atoms: _106  and  _108
REMARK   41  A    between atoms: _108  and  _109
REMARK   42  A    between atoms: _108  and  _111
REMARK   43  A    between atoms: _111  and  _112
REMARK   44  A    between atoms: _116  and  _117
REMARK   45  A    between atoms: _123  and  _124
REMARK   46  A    between atoms: _130  and  _131
REMARK   47  A    between atoms: _136  and  _138
REMARK   48  A    between atoms: _138  and  _139
REMARK   49  A    between atoms: _141  and  _143
REMARK   50  A    between atoms: _143  and  _144
REMARK   51  A    between atoms: _143  and  _146
REMARK   52  A    between atoms: _146  and  _147
REMARK   53  A    between atoms: _150  and  _152
REMARK   54  A    between atoms: _152  and  _153
REMARK   55  A    between atoms: _152  and  _155
REMARK   56  A    between atoms: _155  and  _156
REMARK   57  A    between atoms: _156  and  _157
REMARK   58  A    between atoms: _157  and  _158
REMARK   59  A    between atoms: _167  and  _169
REMARK   60  A    between atoms: _169  and  _170
REMARK   61  A    between atoms: _169  and  _172
REMARK   62  A    between atoms: _175  and  _177
REMARK   63  A    between atoms: _177  and  _178
REMARK   64  A    between atoms: _177  and  _180
REMARK   65  A    between atoms: _180  and  _181
REMARK   66  A    between atoms: _181  and  _182
REMARK   67  A    between atoms: _182  and  _183
REMARK   68  A    between atoms: _193  and  _194
REMARK   69  A    between atoms: _199  and  _201
REMARK   70  A    between atoms: _201  and  _202
REMARK   71  A    between atoms: _201  and  _204
REMARK   72  A    between atoms: _206  and  _208
REMARK   73  A    between atoms: _208  and  _209
REMARK   74  A    between atoms: _208  and  _211
REMARK   75  A    between atoms: _211  and  _212
REMARK   76  A    between atoms: _212  and  _213
REMARK   77  A    between atoms: _217  and  _218
REMARK   78  A    between atoms: _224  and  _225
REMARK   79  A    between atoms: _230  and  _232
REMARK   80  A    between atoms: _232  and  _233
REMARK   81  A    between atoms: _232  and  _235
REMARK   82  A    between atoms: _235  and  _236
REMARK   83  A    between atoms: _238  and  _240
REMARK   84  A    between atoms: _240  and  _241
REMARK   85  A    between atoms: _240  and  _243
REMARK   86  A    between atoms: _243  and  _244
REMARK   87  A    between atoms: _247  and  _249
REMARK   88  A    between atoms: _249  and  _250
REMARK   89  A    between atoms: _249  and  _252
REMARK   90  A    between atoms: _254  and  _256
REMARK   91  A    between atoms: _256  and  _257
REMARK   92  A    between atoms: _256  and  _259
REMARK   93  A    between atoms: _259  and  _260
REMARK   94  A    between atoms: _263  and  _265
REMARK   95  A    between atoms: _265  and  _266
REMARK   96  A    between atoms: _265  and  _268
REMARK   97  A    between atoms: _268  and  _269
REMARK   98  A    between atoms: _272  and  _274
REMARK   99  A    between atoms: _274  and  _275
REMARK  100  A    between atoms: _274  and  _277
REMARK  101  A    between atoms: _277  and  _278
REMARK                            x       y       z     vdW  Elec       q    Type
REMARK                         _______ _______ _______ _____ _____    ______ ____
ROOT
ATOM      1  O   HOH     1      95.101  93.706 -53.934  0.00  0.00    +0.000 OA
ENDROOT
TORSDOF 0
REMARK  Name = ../refined-set-2016/4agp/4agp_pocket.pdb
REMARK  101 active torsions:
REMARK  status: ('A' for Active; 'I' for Inactive)
REMARK    1  A    between atoms: _1  and  _3
REMARK    2  A    between atoms: _3  and  _4
REMARK    3  A    between atoms: _3  and  _6
REMARK    4  A    between atoms: _6  and  _7
REMARK    5  A    between atoms: _12  and  _13
REMARK    6  A    between atoms: _15  and  _17
REMARK    7  A    between atoms: _17  and  _18
REMARK    8  A    between atoms: _17  and  _20
REMARK    9  A    between atoms: _20  and  _21
REMARK   10  A    between atoms: _27  and  _29
REMARK   11  A    between atoms: _29  and  _30
REMARK   12  A    between atoms: _29  and  _32
REMARK   13  A    between atoms: _32  and  _33
REMARK   14  A    between atoms: _33  and  _34
REMARK   15  A    between atoms: _34  and  _35
REMARK   16  A    between atoms: _44  and  _46
REMARK   17  A    between atoms: _46  and  _47
REMARK   18  A    between atoms: _46  and  _49
REMARK   19  A    between atoms: _49  and  _50
REMARK   20  A    between atoms: _50  and  _51
REMARK   21  A    between atoms: _56  and  _58
REMARK   22  A    between atoms: _58  and  _59
REMARK   23  A    between atoms: _58  and  _61
REMARK   24  A    between atoms: _61  and  _62
REMARK   25  A    between atoms: _65  and  _67
REMARK   26  A    between atoms: _67  and  _68
REMARK   27  A    between atoms: _67  and  _70
REMARK   28  A    between atoms: _70  and  _71
REMARK   29  A    between atoms: _81  and  _83
REMARK   30  A    between atoms: _83  and  _84
REMARK   31  A    between atoms: _83  and  _86
REMARK   32  A    between atoms: _89  and  _91
REMARK   33  A    between atoms: _91  and  _92
REMARK   34  A    between atoms: _91  and  _94
REMARK   35  A    between atoms: _94  and  _95
REMARK   36  A    between atoms: _98  and  _100
REMARK   37  A    between atoms: _100  and  _101
REMARK   38  A    between atoms: _100  and  _103
REMARK   39  A    between atoms: _103  and  _104
REMARK   40  A    between atoms: _106  and  _108
REMARK   41  A    between atoms: _108  and  _109
REMARK   42  A    between atoms: _108  and  _111
REMARK   43  A    between atoms: _111  and  _112
REMARK   44  A    between atoms: _116  and  _117
REMARK   45  A    between atoms: _123  and  _124
REMARK   46  A    between atoms: _130  and  _131
REMARK   47  A    between atoms: _136  and  _138
REMARK   48  A    between atoms: _138  and  _139
REMARK   49  A    between atoms: _141  and  _143
REMARK   50  A    between atoms: _143  and  _144
REMARK   51  A    between atoms: _143  and  _146
REMARK   52  A    between atoms: _146  and  _147
REMARK   53  A    between atoms: _150  and  _152
REMARK   54  A    between atoms: _152  and  _153
REMARK   55  A    between atoms: _152  and  _155
REMARK   56  A    between atoms: _155  and  _156
REMARK   57  A    between atoms: _156  and  _157
REMARK   58  A    between atoms: _157  and  _158
REMARK   59  A    between atoms: _167  and  _169
REMARK   60  A    between atoms: _169  and  _170
REMARK   61  A    between atoms: _169  and  _172
REMARK   62  A    between atoms: _175  and  _177
REMARK   63  A    between atoms: _177  and  _178
REMARK   64  A    between atoms: _177  and  _180
REMARK   65  A    between atoms: _180  and  _181
REMARK   66  A    between atoms: _181  and  _182
REMARK   67  A    between atoms: _182  and  _183
REMARK   68  A    between atoms: _193  and  _194
REMARK   69  A    between atoms: _199  and  _201
REMARK   70  A    between atoms: _201  and  _202
REMARK   71  A    between atoms: _201  and  _204
REMARK   72  A    between atoms: _206  and  _208
REMARK   73  A    between atoms: _208  and  _209
REMARK   74  A    between atoms: _208  and  _211
REMARK   75  A    between atoms: _211  and  _212
REMARK   76  A    between atoms: _212  and  _213
REMARK   77  A    between atoms: _217  and  _218
REMARK   78  A    between atoms: _224  and  _225
REMARK   79  A    between atoms: _230  and  _232
REMARK   80  A    between atoms: _232  and  _233
REMARK   81  A    between atoms: _232  and  _235
REMARK   82  A    between atoms: _235  and  _236
REMARK   83  A    between atoms: _238  and  _240
REMARK   84  A    between atoms: _240  and  _241
REMARK   85  A    between atoms: _240  and  _243
REMARK   86  A    between atoms: _243  and  _244
REMARK   87  A    between atoms: _247  and  _249
REMARK   88  A    between atoms: _249  and  _250
REMARK   89  A    between atoms: _249  and  _252
REMARK   90  A    between atoms: _254  and  _256
REMARK   91  A    between atoms: _256  and  _257
REMARK   92  A    between atoms: _256  and  _259
REMARK   93  A    between atoms: _259  and  _260
REMARK   94  A    between atoms: _263  and  _265
REMARK   95  A    between atoms: _265  and  _266
REMARK   96  A    between atoms: _265  and  _268
REMARK   97  A    between atoms: _268  and  _269
REMARK   98  A    between atoms: _272  and  _274
REMARK   99  A    between atoms: _274  and  _275
REMARK  100  A    between atoms: _274  and  _277
REMARK  101  A    between atoms: _277  and  _278
REMARK                            x       y       z     vdW  Elec       q    Type
REMARK                         _______ _______ _______ _____ _____    ______ ____
ROOT
ATOM      1  O   HOH     1      91.189  83.626 -49.343  0.00  0.00    +0.000 OA
ENDROOT
TORSDOF 0
REMARK  Name = ../refined-set-2016/4agp/4agp_pocket.pdb
REMARK  101 active torsions:
REMARK  status: ('A' for Active; 'I' for Inactive)
REMARK    1  A    between atoms: _1  and  _3
REMARK    2  A    between atoms: _3  and  _4
REMARK    3  A    between atoms: _3  and  _6
REMARK    4  A    between atoms: _6  and  _7
REMARK    5  A    between atoms: _12  and  _13
REMARK    6  A    between atoms: _15  and  _17
REMARK    7  A    between atoms: _17  and  _18
REMARK    8  A    between atoms: _17  and  _20
REMARK    9  A    between atoms: _20  and  _21
REMARK   10  A    between atoms: _27  and  _29
REMARK   11  A    between atoms: _29  and  _30
REMARK   12  A    between atoms: _29  and  _32
REMARK   13  A    between atoms: _32  and  _33
REMARK   14  A    between atoms: _33  and  _34
REMARK   15  A    between atoms: _34  and  _35
REMARK   16  A    between atoms: _44  and  _46
REMARK   17  A    between atoms: _46  and  _47
REMARK   18  A    between atoms: _46  and  _49
REMARK   19  A    between atoms: _49  and  _50
REMARK   20  A    between atoms: _50  and  _51
REMARK   21  A    between atoms: _56  and  _58
REMARK   22  A    between atoms: _58  and  _59
REMARK   23  A    between atoms: _58  and  _61
REMARK   24  A    between atoms: _61  and  _62
REMARK   25  A    between atoms: _65  and  _67
REMARK   26  A    between atoms: _67  and  _68
REMARK   27  A    between atoms: _67  and  _70
REMARK   28  A    between atoms: _70  and  _71
REMARK   29  A    between atoms: _81  and  _83
REMARK   30  A    between atoms: _83  and  _84
REMARK   31  A    between atoms: _83  and  _86
REMARK   32  A    between atoms: _89  and  _91
REMARK   33  A    between atoms: _91  and  _92
REMARK   34  A    between atoms: _91  and  _94
REMARK   35  A    between atoms: _94  and  _95
REMARK   36  A    between atoms: _98  and  _100
REMARK   37  A    between atoms: _100  and  _101
REMARK   38  A    between atoms: _100  and  _103
REMARK   39  A    between atoms: _103  and  _104
REMARK   40  A    between atoms: _106  and  _108
REMARK   41  A    between atoms: _108  and  _109
REMARK   42  A    between atoms: _108  and  _111
REMARK   43  A    between atoms: _111  and  _112
REMARK   44  A    between atoms: _116  and  _117
REMARK   45  A    between atoms: _123  and  _124
REMARK   46  A    between atoms: _130  and  _131
REMARK   47  A    between atoms: _136  and  _138
REMARK   48  A    between atoms: _138  and  _139
REMARK   49  A    between atoms: _141  and  _143
REMARK   50  A    between atoms: _143  and  _144
REMARK   51  A    between atoms: _143  and  _146
REMARK   52  A    between atoms: _146  and  _147
REMARK   53  A    between atoms: _150  and  _152
REMARK   54  A    between atoms: _152  and  _153
REMARK   55  A    between atoms: _152  and  _155
REMARK   56  A    between atoms: _155  and  _156
REMARK   57  A    between atoms: _156  and  _157
REMARK   58  A    between atoms: _157  and  _158
REMARK   59  A    between atoms: _167  and  _169
REMARK   60  A    between atoms: _169  and  _170
REMARK   61  A    between atoms: _169  and  _172
REMARK   62  A    between atoms: _175  and  _177
REMARK   63  A    between atoms: _177  and  _178
REMARK   64  A    between atoms: _177  and  _180
REMARK   65  A    between atoms: _180  and  _181
REMARK   66  A    between atoms: _181  and  _182
REMARK   67  A    between atoms: _182  and  _183
REMARK   68  A    between atoms: _193  and  _194
REMARK   69  A    between atoms: _199  and  _201
REMARK   70  A    between atoms: _201  and  _202
REMARK   71  A    between atoms: _201  and  _204
REMARK   72  A    between atoms: _206  and  _208
REMARK   73  A    between atoms: _208  and  _209
REMARK   74  A    between atoms: _208  and  _211
REMARK   75  A    between atoms: _211  and  _212
REMARK   76  A    between atoms: _212  and  _213
REMARK   77  A    between atoms: _217  and  _218
REMARK   78  A    between atoms: _224  and  _225
REMARK   79  A    between atoms: _230  and  _232
REMARK   80  A    between atoms: _232  and  _233
REMARK   81  A    between atoms: _232  and  _235
REMARK   82  A    between atoms: _235  and  _236
REMARK   83  A    between atoms: _238  and  _240
REMARK   84  A    between atoms: _240  and  _241
REMARK   85  A    between atoms: _240  and  _243
REMARK   86  A    between atoms: _243  and  _244
REMARK   87  A    between atoms: _247  and  _249
REMARK   88  A    between atoms: _249  and  _250
REMARK   89  A    between atoms: _249  and  _252
REMARK   90  A    between atoms: _254  and  _256
REMARK   91  A    between atoms: _256  and  _257
REMARK   92  A    between atoms: _256  and  _259
REMARK   93  A    between atoms: _259  and  _260
REMARK   94  A    between atoms: _263  and  _265
REMARK   95  A    between atoms: _265  and  _266
REMARK   96  A    between atoms: _265  and  _268
REMARK   97  A    between atoms: _268  and  _269
REMARK   98  A    between atoms: _272  and  _274
REMARK   99  A    between atoms: _274  and  _275
REMARK  100  A    between atoms: _274  and  _277
REMARK  101  A    between atoms: _277  and  _278
REMARK                            x       y       z     vdW  Elec       q    Type
REMARK                         _______ _______ _______ _____ _____    ______ ____
ROOT
ATOM      1  O   HOH     1      89.928  86.716 -50.397  0.00  0.00    +0.000 OA
ENDROOT
TORSDOF 0
REMARK  Name = ../refined-set-2016/4agp/4agp_pocket.pdb
REMARK  101 active torsions:
REMARK  status: ('A' for Active; 'I' for Inactive)
REMARK    1  A    between atoms: _1  and  _3
REMARK    2  A    between atoms: _3  and  _4
REMARK    3  A    between atoms: _3  and  _6
REMARK    4  A    between atoms: _6  and  _7
REMARK    5  A    between atoms: _12  and  _13
REMARK    6  A    between atoms: _15  and  _17
REMARK    7  A    between atoms: _17  and  _18
REMARK    8  A    between atoms: _17  and  _20
REMARK    9  A    between atoms: _20  and  _21
REMARK   10  A    between atoms: _27  and  _29
REMARK   11  A    between atoms: _29  and  _30
REMARK   12  A    between atoms: _29  and  _32
REMARK   13  A    between atoms: _32  and  _33
REMARK   14  A    between atoms: _33  and  _34
REMARK   15  A    between atoms: _34  and  _35
REMARK   16  A    between atoms: _44  and  _46
REMARK   17  A    between atoms: _46  and  _47
REMARK   18  A    between atoms: _46  and  _49
REMARK   19  A    between atoms: _49  and  _50
REMARK   20  A    between atoms: _50  and  _51
REMARK   21  A    between atoms: _56  and  _58
REMARK   22  A    between atoms: _58  and  _59
REMARK   23  A    between atoms: _58  and  _61
REMARK   24  A    between atoms: _61  and  _62
REMARK   25  A    between atoms: _65  and  _67
REMARK   26  A    between atoms: _67  and  _68
REMARK   27  A    between atoms: _67  and  _70
REMARK   28  A    between atoms: _70  and  _71
REMARK   29  A    between atoms: _81  and  _83
REMARK   30  A    between atoms: _83  and  _84
REMARK   31  A    between atoms: _83  and  _86
REMARK   32  A    between atoms: _89  and  _91
REMARK   33  A    between atoms: _91  and  _92
REMARK   34  A    between atoms: _91  and  _94
REMARK   35  A    between atoms: _94  and  _95
REMARK   36  A    between atoms: _98  and  _100
REMARK   37  A    between atoms: _100  and  _101
REMARK   38  A    between atoms: _100  and  _103
REMARK   39  A    between atoms: _103  and  _104
REMARK   40  A    between atoms: _106  and  _108
REMARK   41  A    between atoms: _108  and  _109
REMARK   42  A    between atoms: _108  and  _111
REMARK   43  A    between atoms: _111  and  _112
REMARK   44  A    between atoms: _116  and  _117
REMARK   45  A    between atoms: _123  and  _124
REMARK   46  A    between atoms: _130  and  _131
REMARK   47  A    between atoms: _136  and  _138
REMARK   48  A    between atoms: _138  and  _139
REMARK   49  A    between atoms: _141  and  _143
REMARK   50  A    between atoms: _143  and  _144
REMARK   51  A    between atoms: _143  and  _146
REMARK   52  A    between atoms: _146  and  _147
REMARK   53  A    between atoms: _150  and  _152
REMARK   54  A    between atoms: _152  and  _153
REMARK   55  A    between atoms: _152  and  _155
REMARK   56  A    between atoms: _155  and  _156
REMARK   57  A    between atoms: _156  and  _157
REMARK   58  A    between atoms: _157  and  _158
REMARK   59  A    between atoms: _167  and  _169
REMARK   60  A    between atoms: _169  and  _170
REMARK   61  A    between atoms: _169  and  _172
REMARK   62  A    between atoms: _175  and  _177
REMARK   63  A    between atoms: _177  and  _178
REMARK   64  A    between atoms: _177  and  _180
REMARK   65  A    between atoms: _180  and  _181
REMARK   66  A    between atoms: _181  and  _182
REMARK   67  A    between atoms: _182  and  _183
REMARK   68  A    between atoms: _193  and  _194
REMARK   69  A    between atoms: _199  and  _201
REMARK   70  A    between atoms: _201  and  _202
REMARK   71  A    between atoms: _201  and  _204
REMARK   72  A    between atoms: _206  and  _208
REMARK   73  A    between atoms: _208  and  _209
REMARK   74  A    between atoms: _208  and  _211
REMARK   75  A    between atoms: _211  and  _212
REMARK   76  A    between atoms: _212  and  _213
REMARK   77  A    between atoms: _217  and  _218
REMARK   78  A    between atoms: _224  and  _225
REMARK   79  A    between atoms: _230  and  _232
REMARK   80  A    between atoms: _232  and  _233
REMARK   81  A    between atoms: _232  and  _235
REMARK   82  A    between atoms: _235  and  _236
REMARK   83  A    between atoms: _238  and  _240
REMARK   84  A    between atoms: _240  and  _241
REMARK   85  A    between atoms: _240  and  _243
REMARK   86  A    between atoms: _243  and  _244
REMARK   87  A    between atoms: _247  and  _249
REMARK   88  A    between atoms: _249  and  _250
REMARK   89  A    between atoms: _249  and  _252
REMARK   90  A    between atoms: _254  and  _256
REMARK   91  A    between atoms: _256  and  _257
REMARK   92  A    between atoms: _256  and  _259
REMARK   93  A    between atoms: _259  and  _260
REMARK   94  A    between atoms: _263  and  _265
REMARK   95  A    between atoms: _265  and  _266
REMARK   96  A    between atoms: _265  and  _268
REMARK   97  A    between atoms: _268  and  _269
REMARK   98  A    between atoms: _272  and  _274
REMARK   99  A    between atoms: _274  and  _275
REMARK  100  A    between atoms: _274  and  _277
REMARK  101  A    between atoms: _277  and  _278
REMARK                            x       y       z     vdW  Elec       q    Type
REMARK                         _______ _______ _______ _____ _____    ______ ____
ROOT
ATOM      1  O   HOH     1      92.166  86.491 -48.109  0.00  0.00    +0.000 OA
ENDROOT
TORSDOF 0
REMARK  Name = ../refined-set-2016/4agp/4agp_pocket.pdb
REMARK  101 active torsions:
REMARK  status: ('A' for Active; 'I' for Inactive)
REMARK    1  A    between atoms: _1  and  _3
REMARK    2  A    between atoms: _3  and  _4
REMARK    3  A    between atoms: _3  and  _6
REMARK    4  A    between atoms: _6  and  _7
REMARK    5  A    between atoms: _12  and  _13
REMARK    6  A    between atoms: _15  and  _17
REMARK    7  A    between atoms: _17  and  _18
REMARK    8  A    between atoms: _17  and  _20
REMARK    9  A    between atoms: _20  and  _21
REMARK   10  A    between atoms: _27  and  _29
REMARK   11  A    between atoms: _29  and  _30
REMARK   12  A    between atoms: _29  and  _32
REMARK   13  A    between atoms: _32  and  _33
REMARK   14  A    between atoms: _33  and  _34
REMARK   15  A    between atoms: _34  and  _35
REMARK   16  A    between atoms: _44  and  _46
REMARK   17  A    between atoms: _46  and  _47
REMARK   18  A    between atoms: _46  and  _49
REMARK   19  A    between atoms: _49  and  _50
REMARK   20  A    between atoms: _50  and  _51
REMARK   21  A    between atoms: _56  and  _58
REMARK   22  A    between atoms: _58  and  _59
REMARK   23  A    between atoms: _58  and  _61
REMARK   24  A    between atoms: _61  and  _62
REMARK   25  A    between atoms: _65  and  _67
REMARK   26  A    between atoms: _67  and  _68
REMARK   27  A    between atoms: _67  and  _70
REMARK   28  A    between atoms: _70  and  _71
REMARK   29  A    between atoms: _81  and  _83
REMARK   30  A    between atoms: _83  and  _84
REMARK   31  A    between atoms: _83  and  _86
REMARK   32  A    between atoms: _89  and  _91
REMARK   33  A    between atoms: _91  and  _92
REMARK   34  A    between atoms: _91  and  _94
REMARK   35  A    between atoms: _94  and  _95
REMARK   36  A    between atoms: _98  and  _100
REMARK   37  A    between atoms: _100  and  _101
REMARK   38  A    between atoms: _100  and  _103
REMARK   39  A    between atoms: _103  and  _104
REMARK   40  A    between atoms: _106  and  _108
REMARK   41  A    between atoms: _108  and  _109
REMARK   42  A    between atoms: _108  and  _111
REMARK   43  A    between atoms: _111  and  _112
REMARK   44  A    between atoms: _116  and  _117
REMARK   45  A    between atoms: _123  and  _124
REMARK   46  A    between atoms: _130  and  _131
REMARK   47  A    between atoms: _136  and  _138
REMARK   48  A    between atoms: _138  and  _139
REMARK   49  A    between atoms: _141  and  _143
REMARK   50  A    between atoms: _143  and  _144
REMARK   51  A    between atoms: _143  and  _146
REMARK   52  A    between atoms: _146  and  _147
REMARK   53  A    between atoms: _150  and  _152
REMARK   54  A    between atoms: _152  and  _153
REMARK   55  A    between atoms: _152  and  _155
REMARK   56  A    between atoms: _155  and  _156
REMARK   57  A    between atoms: _156  and  _157
REMARK   58  A    between atoms: _157  and  _158
REMARK   59  A    between atoms: _167  and  _169
REMARK   60  A    between atoms: _169  and  _170
REMARK   61  A    between atoms: _169  and  _172
REMARK   62  A    between atoms: _175  and  _177
REMARK   63  A    between atoms: _177  and  _178
REMARK   64  A    between atoms: _177  and  _180
REMARK   65  A    between atoms: _180  and  _181
REMARK   66  A    between atoms: _181  and  _182
REMARK   67  A    between atoms: _182  and  _183
REMARK   68  A    between atoms: _193  and  _194
REMARK   69  A    between atoms: _199  and  _201
REMARK   70  A    between atoms: _201  and  _202
REMARK   71  A    between atoms: _201  and  _204
REMARK   72  A    between atoms: _206  and  _208
REMARK   73  A    between atoms: _208  and  _209
REMARK   74  A    between atoms: _208  and  _211
REMARK   75  A    between atoms: _211  and  _212
REMARK   76  A    between atoms: _212  and  _213
REMARK   77  A    between atoms: _217  and  _218
REMARK   78  A    between atoms: _224  and  _225
REMARK   79  A    between atoms: _230  and  _232
REMARK   80  A    between atoms: _232  and  _233
REMARK   81  A    between atoms: _232  and  _235
REMARK   82  A    between atoms: _235  and  _236
REMARK   83  A    between atoms: _238  and  _240
REMARK   84  A    between atoms: _240  and  _241
REMARK   85  A    between atoms: _240  and  _243
REMARK   86  A    between atoms: _243  and  _244
REMARK   87  A    between atoms: _247  and  _249
REMARK   88  A    between atoms: _249  and  _250
REMARK   89  A    between atoms: _249  and  _252
REMARK   90  A    between atoms: _254  and  _256
REMARK   91  A    between atoms: _256  and  _257
REMARK   92  A    between atoms: _256  and  _259
REMARK   93  A    between atoms: _259  and  _260
REMARK   94  A    between atoms: _263  and  _265
REMARK   95  A    between atoms: _265  and  _266
REMARK   96  A    between atoms: _265  and  _268
REMARK   97  A    between atoms: _268  and  _269
REMARK   98  A    between atoms: _272  and  _274
REMARK   99  A    between atoms: _274  and  _275
REMARK  100  A    between atoms: _274  and  _277
REMARK  101  A    between atoms: _277  and  _278
REMARK                            x       y       z     vdW  Elec       q    Type
REMARK                         _______ _______ _______ _____ _____    ______ ____
ROOT
ATOM      1  O   HOH     1      86.698  97.590 -45.058  0.00  0.00    +0.000 OA
ENDROOT
TORSDOF 0
REMARK  Name = ../refined-set-2016/4agp/4agp_pocket.pdb
REMARK  101 active torsions:
REMARK  status: ('A' for Active; 'I' for Inactive)
REMARK    1  A    between atoms: _1  and  _3
REMARK    2  A    between atoms: _3  and  _4
REMARK    3  A    between atoms: _3  and  _6
REMARK    4  A    between atoms: _6  and  _7
REMARK    5  A    between atoms: _12  and  _13
REMARK    6  A    between atoms: _15  and  _17
REMARK    7  A    between atoms: _17  and  _18
REMARK    8  A    between atoms: _17  and  _20
REMARK    9  A    between atoms: _20  and  _21
REMARK   10  A    between atoms: _27  and  _29
REMARK   11  A    between atoms: _29  and  _30
REMARK   12  A    between atoms: _29  and  _32
REMARK   13  A    between atoms: _32  and  _33
REMARK   14  A    between atoms: _33  and  _34
REMARK   15  A    between atoms: _34  and  _35
REMARK   16  A    between atoms: _44  and  _46
REMARK   17  A    between atoms: _46  and  _47
REMARK   18  A    between atoms: _46  and  _49
REMARK   19  A    between atoms: _49  and  _50
REMARK   20  A    between atoms: _50  and  _51
REMARK   21  A    between atoms: _56  and  _58
REMARK   22  A    between atoms: _58  and  _59
REMARK   23  A    between atoms: _58  and  _61
REMARK   24  A    between atoms: _61  and  _62
REMARK   25  A    between atoms: _65  and  _67
REMARK   26  A    between atoms: _67  and  _68
REMARK   27  A    between atoms: _67  and  _70
REMARK   28  A    between atoms: _70  and  _71
REMARK   29  A    between atoms: _81  and  _83
REMARK   30  A    between atoms: _83  and  _84
REMARK   31  A    between atoms: _83  and  _86
REMARK   32  A    between atoms: _89  and  _91
REMARK   33  A    between atoms: _91  and  _92
REMARK   34  A    between atoms: _91  and  _94
REMARK   35  A    between atoms: _94  and  _95
REMARK   36  A    between atoms: _98  and  _100
REMARK   37  A    between atoms: _100  and  _101
REMARK   38  A    between atoms: _100  and  _103
REMARK   39  A    between atoms: _103  and  _104
REMARK   40  A    between atoms: _106  and  _108
REMARK   41  A    between atoms: _108  and  _109
REMARK   42  A    between atoms: _108  and  _111
REMARK   43  A    between atoms: _111  and  _112
REMARK   44  A    between atoms: _116  and  _117
REMARK   45  A    between atoms: _123  and  _124
REMARK   46  A    between atoms: _130  and  _131
REMARK   47  A    between atoms: _136  and  _138
REMARK   48  A    between atoms: _138  and  _139
REMARK   49  A    between atoms: _141  and  _143
REMARK   50  A    between atoms: _143  and  _144
REMARK   51  A    between atoms: _143  and  _146
REMARK   52  A    between atoms: _146  and  _147
REMARK   53  A    between atoms: _150  and  _152
REMARK   54  A    between atoms: _152  and  _153
REMARK   55  A    between atoms: _152  and  _155
REMARK   56  A    between atoms: _155  and  _156
REMARK   57  A    between atoms: _156  and  _157
REMARK   58  A    between atoms: _157  and  _158
REMARK   59  A    between atoms: _167  and  _169
REMARK   60  A    between atoms: _169  and  _170
REMARK   61  A    between atoms: _169  and  _172
REMARK   62  A    between atoms: _175  and  _177
REMARK   63  A    between atoms: _177  and  _178
REMARK   64  A    between atoms: _177  and  _180
REMARK   65  A    between atoms: _180  and  _181
REMARK   66  A    between atoms: _181  and  _182
REMARK   67  A    between atoms: _182  and  _183
REMARK   68  A    between atoms: _193  and  _194
REMARK   69  A    between atoms: _199  and  _201
REMARK   70  A    between atoms: _201  and  _202
REMARK   71  A    between atoms: _201  and  _204
REMARK   72  A    between atoms: _206  and  _208
REMARK   73  A    between atoms: _208  and  _209
REMARK   74  A    between atoms: _208  and  _211
REMARK   75  A    between atoms: _211  and  _212
REMARK   76  A    between atoms: _212  and  _213
REMARK   77  A    between atoms: _217  and  _218
REMARK   78  A    between atoms: _224  and  _225
REMARK   79  A    between atoms: _230  and  _232
REMARK   80  A    between atoms: _232  and  _233
REMARK   81  A    between atoms: _232  and  _235
REMARK   82  A    between atoms: _235  and  _236
REMARK   83  A    between atoms: _238  and  _240
REMARK   84  A    between atoms: _240  and  _241
REMARK   85  A    between atoms: _240  and  _243
REMARK   86  A    between atoms: _243  and  _244
REMARK   87  A    between atoms: _247  and  _249
REMARK   88  A    between atoms: _249  and  _250
REMARK   89  A    between atoms: _249  and  _252
REMARK   90  A    between atoms: _254  and  _256
REMARK   91  A    between atoms: _256  and  _257
REMARK   92  A    between atoms: _256  and  _259
REMARK   93  A    between atoms: _259  and  _260
REMARK   94  A    between atoms: _263  and  _265
REMARK   95  A    between atoms: _265  and  _266
REMARK   96  A    between atoms: _265  and  _268
REMARK   97  A    between atoms: _268  and  _269
REMARK   98  A    between atoms: _272  and  _274
REMARK   99  A    between atoms: _274  and  _275
REMARK  100  A    between atoms: _274  and  _277
REMARK  101  A    between atoms: _277  and  _278
REMARK                            x       y       z     vdW  Elec       q    Type
REMARK                         _______ _______ _______ _____ _____    ______ ____
ROOT
ATOM      1  O   HOH     1      90.616  87.514 -41.031  0.00  0.00    +0.000 OA
ENDROOT
TORSDOF 0
REMARK  Name = ../refined-set-2016/4agp/4agp_pocket.pdb
REMARK  101 active torsions:
REMARK  status: ('A' for Active; 'I' for Inactive)
REMARK    1  A    between atoms: _1  and  _3
REMARK    2  A    between atoms: _3  and  _4
REMARK    3  A    between atoms: _3  and  _6
REMARK    4  A    between atoms: _6  and  _7
REMARK    5  A    between atoms: _12  and  _13
REMARK    6  A    between atoms: _15  and  _17
REMARK    7  A    between atoms: _17  and  _18
REMARK    8  A    between atoms: _17  and  _20
REMARK    9  A    between atoms: _20  and  _21
REMARK   10  A    between atoms: _27  and  _29
REMARK   11  A    between atoms: _29  and  _30
REMARK   12  A    between atoms: _29  and  _32
REMARK   13  A    between atoms: _32  and  _33
REMARK   14  A    between atoms: _33  and  _34
REMARK   15  A    between atoms: _34  and  _35
REMARK   16  A    between atoms: _44  and  _46
REMARK   17  A    between atoms: _46  and  _47
REMARK   18  A    between atoms: _46  and  _49
REMARK   19  A    between atoms: _49  and  _50
REMARK   20  A    between atoms: _50  and  _51
REMARK   21  A    between atoms: _56  and  _58
REMARK   22  A    between atoms: _58  and  _59
REMARK   23  A    between atoms: _58  and  _61
REMARK   24  A    between atoms: _61  and  _62
REMARK   25  A    between atoms: _65  and  _67
REMARK   26  A    between atoms: _67  and  _68
REMARK   27  A    between atoms: _67  and  _70
REMARK   28  A    between atoms: _70  and  _71
REMARK   29  A    between atoms: _81  and  _83
REMARK   30  A    between atoms: _83  and  _84
REMARK   31  A    between atoms: _83  and  _86
REMARK   32  A    between atoms: _89  and  _91
REMARK   33  A    between atoms: _91  and  _92
REMARK   34  A    between atoms: _91  and  _94
REMARK   35  A    between atoms: _94  and  _95
REMARK   36  A    between atoms: _98  and  _100
REMARK   37  A    between atoms: _100  and  _101
REMARK   38  A    between atoms: _100  and  _103
REMARK   39  A    between atoms: _103  and  _104
REMARK   40  A    between atoms: _106  and  _108
REMARK   41  A    between atoms: _108  and  _109
REMARK   42  A    between atoms: _108  and  _111
REMARK   43  A    between atoms: _111  and  _112
REMARK   44  A    between atoms: _116  and  _117
REMARK   45  A    between atoms: _123  and  _124
REMARK   46  A    between atoms: _130  and  _131
REMARK   47  A    between atoms: _136  and  _138
REMARK   48  A    between atoms: _138  and  _139
REMARK   49  A    between atoms: _141  and  _143
REMARK   50  A    between atoms: _143  and  _144
REMARK   51  A    between atoms: _143  and  _146
REMARK   52  A    between atoms: _146  and  _147
REMARK   53  A    between atoms: _150  and  _152
REMARK   54  A    between atoms: _152  and  _153
REMARK   55  A    between atoms: _152  and  _155
REMARK   56  A    between atoms: _155  and  _156
REMARK   57  A    between atoms: _156  and  _157
REMARK   58  A    between atoms: _157  and  _158
REMARK   59  A    between atoms: _167  and  _169
REMARK   60  A    between atoms: _169  and  _170
REMARK   61  A    between atoms: _169  and  _172
REMARK   62  A    between atoms: _175  and  _177
REMARK   63  A    between atoms: _177  and  _178
REMARK   64  A    between atoms: _177  and  _180
REMARK   65  A    between atoms: _180  and  _181
REMARK   66  A    between atoms: _181  and  _182
REMARK   67  A    between atoms: _182  and  _183
REMARK   68  A    between atoms: _193  and  _194
REMARK   69  A    between atoms: _199  and  _201
REMARK   70  A    between atoms: _201  and  _202
REMARK   71  A    between atoms: _201  and  _204
REMARK   72  A    between atoms: _206  and  _208
REMARK   73  A    between atoms: _208  and  _209
REMARK   74  A    between atoms: _208  and  _211
REMARK   75  A    between atoms: _211  and  _212
REMARK   76  A    between atoms: _212  and  _213
REMARK   77  A    between atoms: _217  and  _218
REMARK   78  A    between atoms: _224  and  _225
REMARK   79  A    between atoms: _230  and  _232
REMARK   80  A    between atoms: _232  and  _233
REMARK   81  A    between atoms: _232  and  _235
REMARK   82  A    between atoms: _235  and  _236
REMARK   83  A    between atoms: _238  and  _240
REMARK   84  A    between atoms: _240  and  _241
REMARK   85  A    between atoms: _240  and  _243
REMARK   86  A    between atoms: _243  and  _244
REMARK   87  A    between atoms: _247  and  _249
REMARK   88  A    between atoms: _249  and  _250
REMARK   89  A    between atoms: _249  and  _252
REMARK   90  A    between atoms: _254  and  _256
REMARK   91  A    between atoms: _256  and  _257
REMARK   92  A    between atoms: _256  and  _259
REMARK   93  A    between atoms: _259  and  _260
REMARK   94  A    between atoms: _263  and  _265
REMARK   95  A    between atoms: _265  and  _266
REMARK   96  A    between atoms: _265  and  _268
REMARK   97  A    between atoms: _268  and  _269
REMARK   98  A    between atoms: _272  and  _274
REMARK   99  A    between atoms: _274  and  _275
REMARK  100  A    between atoms: _274  and  _277
REMARK  101  A    between atoms: _277  and  _278
REMARK                            x       y       z     vdW  Elec       q    Type
REMARK                         _______ _______ _______ _____ _____    ______ ____
ROOT
ATOM      1  O   HOH     1      92.461  90.010 -41.439  0.00  0.00    +0.000 OA
ENDROOT
TORSDOF 0
REMARK  Name = ../refined-set-2016/4agp/4agp_pocket.pdb
REMARK  101 active torsions:
REMARK  status: ('A' for Active; 'I' for Inactive)
REMARK    1  A    between atoms: _1  and  _3
REMARK    2  A    between atoms: _3  and  _4
REMARK    3  A    between atoms: _3  and  _6
REMARK    4  A    between atoms: _6  and  _7
REMARK    5  A    between atoms: _12  and  _13
REMARK    6  A    between atoms: _15  and  _17
REMARK    7  A    between atoms: _17  and  _18
REMARK    8  A    between atoms: _17  and  _20
REMARK    9  A    between atoms: _20  and  _21
REMARK   10  A    between atoms: _27  and  _29
REMARK   11  A    between atoms: _29  and  _30
REMARK   12  A    between atoms: _29  and  _32
REMARK   13  A    between atoms: _32  and  _33
REMARK   14  A    between atoms: _33  and  _34
REMARK   15  A    between atoms: _34  and  _35
REMARK   16  A    between atoms: _44  and  _46
REMARK   17  A    between atoms: _46  and  _47
REMARK   18  A    between atoms: _46  and  _49
REMARK   19  A    between atoms: _49  and  _50
REMARK   20  A    between atoms: _50  and  _51
REMARK   21  A    between atoms: _56  and  _58
REMARK   22  A    between atoms: _58  and  _59
REMARK   23  A    between atoms: _58  and  _61
REMARK   24  A    between atoms: _61  and  _62
REMARK   25  A    between atoms: _65  and  _67
REMARK   26  A    between atoms: _67  and  _68
REMARK   27  A    between atoms: _67  and  _70
REMARK   28  A    between atoms: _70  and  _71
REMARK   29  A    between atoms: _81  and  _83
REMARK   30  A    between atoms: _83  and  _84
REMARK   31  A    between atoms: _83  and  _86
REMARK   32  A    between atoms: _89  and  _91
REMARK   33  A    between atoms: _91  and  _92
REMARK   34  A    between atoms: _91  and  _94
REMARK   35  A    between atoms: _94  and  _95
REMARK   36  A    between atoms: _98  and  _100
REMARK   37  A    between atoms: _100  and  _101
REMARK   38  A    between atoms: _100  and  _103
REMARK   39  A    between atoms: _103  and  _104
REMARK   40  A    between atoms: _106  and  _108
REMARK   41  A    between atoms: _108  and  _109
REMARK   42  A    between atoms: _108  and  _111
REMARK   43  A    between atoms: _111  and  _112
REMARK   44  A    between atoms: _116  and  _117
REMARK   45  A    between atoms: _123  and  _124
REMARK   46  A    between atoms: _130  and  _131
REMARK   47  A    between atoms: _136  and  _138
REMARK   48  A    between atoms: _138  and  _139
REMARK   49  A    between atoms: _141  and  _143
REMARK   50  A    between atoms: _143  and  _144
REMARK   51  A    between atoms: _143  and  _146
REMARK   52  A    between atoms: _146  and  _147
REMARK   53  A    between atoms: _150  and  _152
REMARK   54  A    between atoms: _152  and  _153
REMARK   55  A    between atoms: _152  and  _155
REMARK   56  A    between atoms: _155  and  _156
REMARK   57  A    between atoms: _156  and  _157
REMARK   58  A    between atoms: _157  and  _158
REMARK   59  A    between atoms: _167  and  _169
REMARK   60  A    between atoms: _169  and  _170
REMARK   61  A    between atoms: _169  and  _172
REMARK   62  A    between atoms: _175  and  _177
REMARK   63  A    between atoms: _177  and  _178
REMARK   64  A    between atoms: _177  and  _180
REMARK   65  A    between atoms: _180  and  _181
REMARK   66  A    between atoms: _181  and  _182
REMARK   67  A    between atoms: _182  and  _183
REMARK   68  A    between atoms: _193  and  _194
REMARK   69  A    between atoms: _199  and  _201
REMARK   70  A    between atoms: _201  and  _202
REMARK   71  A    between atoms: _201  and  _204
REMARK   72  A    between atoms: _206  and  _208
REMARK   73  A    between atoms: _208  and  _209
REMARK   74  A    between atoms: _208  and  _211
REMARK   75  A    between atoms: _211  and  _212
REMARK   76  A    between atoms: _212  and  _213
REMARK   77  A    between atoms: _217  and  _218
REMARK   78  A    between atoms: _224  and  _225
REMARK   79  A    between atoms: _230  and  _232
REMARK   80  A    between atoms: _232  and  _233
REMARK   81  A    between atoms: _232  and  _235
REMARK   82  A    between atoms: _235  and  _236
REMARK   83  A    between atoms: _238  and  _240
REMARK   84  A    between atoms: _240  and  _241
REMARK   85  A    between atoms: _240  and  _243
REMARK   86  A    between atoms: _243  and  _244
REMARK   87  A    between atoms: _247  and  _249
REMARK   88  A    between atoms: _249  and  _250
REMARK   89  A    between atoms: _249  and  _252
REMARK   90  A    between atoms: _254  and  _256
REMARK   91  A    between atoms: _256  and  _257
REMARK   92  A    between atoms: _256  and  _259
REMARK   93  A    between atoms: _259  and  _260
REMARK   94  A    between atoms: _263  and  _265
REMARK   95  A    between atoms: _265  and  _266
REMARK   96  A    between atoms: _265  and  _268
REMARK   97  A    between atoms: _268  and  _269
REMARK   98  A    between atoms: _272  and  _274
REMARK   99  A    between atoms: _274  and  _275
REMARK  100  A    between atoms: _274  and  _277
REMARK  101  A    between atoms: _277  and  _278
REMARK                            x       y       z     vdW  Elec       q    Type
REMARK                         _______ _______ _______ _____ _____    ______ ____
ROOT
ATOM      1  O   HOH     1      84.641  90.506 -44.796  0.00  0.00    +0.000 OA
ENDROOT
TORSDOF 0
REMARK  Name = ../refined-set-2016/4agp/4agp_pocket.pdb
REMARK  101 active torsions:
REMARK  status: ('A' for Active; 'I' for Inactive)
REMARK    1  A    between atoms: _1  and  _3
REMARK    2  A    between atoms: _3  and  _4
REMARK    3  A    between atoms: _3  and  _6
REMARK    4  A    between atoms: _6  and  _7
REMARK    5  A    between atoms: _12  and  _13
REMARK    6  A    between atoms: _15  and  _17
REMARK    7  A    between atoms: _17  and  _18
REMARK    8  A    between atoms: _17  and  _20
REMARK    9  A    between atoms: _20  and  _21
REMARK   10  A    between atoms: _27  and  _29
REMARK   11  A    between atoms: _29  and  _30
REMARK   12  A    between atoms: _29  and  _32
REMARK   13  A    between atoms: _32  and  _33
REMARK   14  A    between atoms: _33  and  _34
REMARK   15  A    between atoms: _34  and  _35
REMARK   16  A    between atoms: _44  and  _46
REMARK   17  A    between atoms: _46  and  _47
REMARK   18  A    between atoms: _46  and  _49
REMARK   19  A    between atoms: _49  and  _50
REMARK   20  A    between atoms: _50  and  _51
REMARK   21  A    between atoms: _56  and  _58
REMARK   22  A    between atoms: _58  and  _59
REMARK   23  A    between atoms: _58  and  _61
REMARK   24  A    between atoms: _61  and  _62
REMARK   25  A    between atoms: _65  and  _67
REMARK   26  A    between atoms: _67  and  _68
REMARK   27  A    between atoms: _67  and  _70
REMARK   28  A    between atoms: _70  and  _71
REMARK   29  A    between atoms: _81  and  _83
REMARK   30  A    between atoms: _83  and  _84
REMARK   31  A    between atoms: _83  and  _86
REMARK   32  A    between atoms: _89  and  _91
REMARK   33  A    between atoms: _91  and  _92
REMARK   34  A    between atoms: _91  and  _94
REMARK   35  A    between atoms: _94  and  _95
REMARK   36  A    between atoms: _98  and  _100
REMARK   37  A    between atoms: _100  and  _101
REMARK   38  A    between atoms: _100  and  _103
REMARK   39  A    between atoms: _103  and  _104
REMARK   40  A    between atoms: _106  and  _108
REMARK   41  A    between atoms: _108  and  _109
REMARK   42  A    between atoms: _108  and  _111
REMARK   43  A    between atoms: _111  and  _112
REMARK   44  A    between atoms: _116  and  _117
REMARK   45  A    between atoms: _123  and  _124
REMARK   46  A    between atoms: _130  and  _131
REMARK   47  A    between atoms: _136  and  _138
REMARK   48  A    between atoms: _138  and  _139
REMARK   49  A    between atoms: _141  and  _143
REMARK   50  A    between atoms: _143  and  _144
REMARK   51  A    between atoms: _143  and  _146
REMARK   52  A    between atoms: _146  and  _147
REMARK   53  A    between atoms: _150  and  _152
REMARK   54  A    between atoms: _152  and  _153
REMARK   55  A    between atoms: _152  and  _155
REMARK   56  A    between atoms: _155  and  _156
REMARK   57  A    between atoms: _156  and  _157
REMARK   58  A    between atoms: _157  and  _158
REMARK   59  A    between atoms: _167  and  _169
REMARK   60  A    between atoms: _169  and  _170
REMARK   61  A    between atoms: _169  and  _172
REMARK   62  A    between atoms: _175  and  _177
REMARK   63  A    between atoms: _177  and  _178
REMARK   64  A    between atoms: _177  and  _180
REMARK   65  A    between atoms: _180  and  _181
REMARK   66  A    between atoms: _181  and  _182
REMARK   67  A    between atoms: _182  and  _183
REMARK   68  A    between atoms: _193  and  _194
REMARK   69  A    between atoms: _199  and  _201
REMARK   70  A    between atoms: _201  and  _202
REMARK   71  A    between atoms: _201  and  _204
REMARK   72  A    between atoms: _206  and  _208
REMARK   73  A    between atoms: _208  and  _209
REMARK   74  A    between atoms: _208  and  _211
REMARK   75  A    between atoms: _211  and  _212
REMARK   76  A    between atoms: _212  and  _213
REMARK   77  A    between atoms: _217  and  _218
REMARK   78  A    between atoms: _224  and  _225
REMARK   79  A    between atoms: _230  and  _232
REMARK   80  A    between atoms: _232  and  _233
REMARK   81  A    between atoms: _232  and  _235
REMARK   82  A    between atoms: _235  and  _236
REMARK   83  A    between atoms: _238  and  _240
REMARK   84  A    between atoms: _240  and  _241
REMARK   85  A    between atoms: _240  and  _243
REMARK   86  A    between atoms: _243  and  _244
REMARK   87  A    between atoms: _247  and  _249
REMARK   88  A    between atoms: _249  and  _250
REMARK   89  A    between atoms: _249  and  _252
REMARK   90  A    between atoms: _254  and  _256
REMARK   91  A    between atoms: _256  and  _257
REMARK   92  A    between atoms: _256  and  _259
REMARK   93  A    between atoms: _259  and  _260
REMARK   94  A    between atoms: _263  and  _265
REMARK   95  A    between atoms: _265  and  _266
REMARK   96  A    between atoms: _265  and  _268
REMARK   97  A    between atoms: _268  and  _269
REMARK   98  A    between atoms: _272  and  _274
REMARK   99  A    between atoms: _274  and  _275
REMARK  100  A    between atoms: _274  and  _277
REMARK  101  A    between atoms: _277  and  _278
REMARK                            x       y       z     vdW  Elec       q    Type
REMARK                         _______ _______ _______ _____ _____    ______ ____
ROOT
ATOM      1  O   HOH     1      85.553  90.441 -40.798  0.00  0.00    +0.000 OA
ENDROOT
TORSDOF 0
REMARK  Name = ../refined-set-2016/4agp/4agp_pocket.pdb
REMARK  101 active torsions:
REMARK  status: ('A' for Active; 'I' for Inactive)
REMARK    1  A    between atoms: _1  and  _3
REMARK    2  A    between atoms: _3  and  _4
REMARK    3  A    between atoms: _3  and  _6
REMARK    4  A    between atoms: _6  and  _7
REMARK    5  A    between atoms: _12  and  _13
REMARK    6  A    between atoms: _15  and  _17
REMARK    7  A    between atoms: _17  and  _18
REMARK    8  A    between atoms: _17  and  _20
REMARK    9  A    between atoms: _20  and  _21
REMARK   10  A    between atoms: _27  and  _29
REMARK   11  A    between atoms: _29  and  _30
REMARK   12  A    between atoms: _29  and  _32
REMARK   13  A    between atoms: _32  and  _33
REMARK   14  A    between atoms: _33  and  _34
REMARK   15  A    between atoms: _34  and  _35
REMARK   16  A    between atoms: _44  and  _46
REMARK   17  A    between atoms: _46  and  _47
REMARK   18  A    between atoms: _46  and  _49
REMARK   19  A    between atoms: _49  and  _50
REMARK   20  A    between atoms: _50  and  _51
REMARK   21  A    between atoms: _56  and  _58
REMARK   22  A    between atoms: _58  and  _59
REMARK   23  A    between atoms: _58  and  _61
REMARK   24  A    between atoms: _61  and  _62
REMARK   25  A    between atoms: _65  and  _67
REMARK   26  A    between atoms: _67  and  _68
REMARK   27  A    between atoms: _67  and  _70
REMARK   28  A    between atoms: _70  and  _71
REMARK   29  A    between atoms: _81  and  _83
REMARK   30  A    between atoms: _83  and  _84
REMARK   31  A    between atoms: _83  and  _86
REMARK   32  A    between atoms: _89  and  _91
REMARK   33  A    between atoms: _91  and  _92
REMARK   34  A    between atoms: _91  and  _94
REMARK   35  A    between atoms: _94  and  _95
REMARK   36  A    between atoms: _98  and  _100
REMARK   37  A    between atoms: _100  and  _101
REMARK   38  A    between atoms: _100  and  _103
REMARK   39  A    between atoms: _103  and  _104
REMARK   40  A    between atoms: _106  and  _108
REMARK   41  A    between atoms: _108  and  _109
REMARK   42  A    between atoms: _108  and  _111
REMARK   43  A    between atoms: _111  and  _112
REMARK   44  A    between atoms: _116  and  _117
REMARK   45  A    between atoms: _123  and  _124
REMARK   46  A    between atoms: _130  and  _131
REMARK   47  A    between atoms: _136  and  _138
REMARK   48  A    between atoms: _138  and  _139
REMARK   49  A    between atoms: _141  and  _143
REMARK   50  A    between atoms: _143  and  _144
REMARK   51  A    between atoms: _143  and  _146
REMARK   52  A    between atoms: _146  and  _147
REMARK   53  A    between atoms: _150  and  _152
REMARK   54  A    between atoms: _152  and  _153
REMARK   55  A    between atoms: _152  and  _155
REMARK   56  A    between atoms: _155  and  _156
REMARK   57  A    between atoms: _156  and  _157
REMARK   58  A    between atoms: _157  and  _158
REMARK   59  A    between atoms: _167  and  _169
REMARK   60  A    between atoms: _169  and  _170
REMARK   61  A    between atoms: _169  and  _172
REMARK   62  A    between atoms: _175  and  _177
REMARK   63  A    between atoms: _177  and  _178
REMARK   64  A    between atoms: _177  and  _180
REMARK   65  A    between atoms: _180  and  _181
REMARK   66  A    between atoms: _181  and  _182
REMARK   67  A    between atoms: _182  and  _183
REMARK   68  A    between atoms: _193  and  _194
REMARK   69  A    between atoms: _199  and  _201
REMARK   70  A    between atoms: _201  and  _202
REMARK   71  A    between atoms: _201  and  _204
REMARK   72  A    between atoms: _206  and  _208
REMARK   73  A    between atoms: _208  and  _209
REMARK   74  A    between atoms: _208  and  _211
REMARK   75  A    between atoms: _211  and  _212
REMARK   76  A    between atoms: _212  and  _213
REMARK   77  A    between atoms: _217  and  _218
REMARK   78  A    between atoms: _224  and  _225
REMARK   79  A    between atoms: _230  and  _232
REMARK   80  A    between atoms: _232  and  _233
REMARK   81  A    between atoms: _232  and  _235
REMARK   82  A    between atoms: _235  and  _236
REMARK   83  A    between atoms: _238  and  _240
REMARK   84  A    between atoms: _240  and  _241
REMARK   85  A    between atoms: _240  and  _243
REMARK   86  A    between atoms: _243  and  _244
REMARK   87  A    between atoms: _247  and  _249
REMARK   88  A    between atoms: _249  and  _250
REMARK   89  A    between atoms: _249  and  _252
REMARK   90  A    between atoms: _254  and  _256
REMARK   91  A    between atoms: _256  and  _257
REMARK   92  A    between atoms: _256  and  _259
REMARK   93  A    between atoms: _259  and  _260
REMARK   94  A    between atoms: _263  and  _265
REMARK   95  A    between atoms: _265  and  _266
REMARK   96  A    between atoms: _265  and  _268
REMARK   97  A    between atoms: _268  and  _269
REMARK   98  A    between atoms: _272  and  _274
REMARK   99  A    between atoms: _274  and  _275
REMARK  100  A    between atoms: _274  and  _277
REMARK  101  A    between atoms: _277  and  _278
REMARK                            x       y       z     vdW  Elec       q    Type
REMARK                         _______ _______ _______ _____ _____    ______ ____
ROOT
ATOM      1  O   HOH     1      84.198  96.762 -44.461  0.00  0.00    +0.000 OA
ENDROOT
TORSDOF 0
REMARK  Name = ../refined-set-2016/4agp/4agp_pocket.pdb
REMARK  101 active torsions:
REMARK  status: ('A' for Active; 'I' for Inactive)
REMARK    1  A    between atoms: _1  and  _3
REMARK    2  A    between atoms: _3  and  _4
REMARK    3  A    between atoms: _3  and  _6
REMARK    4  A    between atoms: _6  and  _7
REMARK    5  A    between atoms: _12  and  _13
REMARK    6  A    between atoms: _15  and  _17
REMARK    7  A    between atoms: _17  and  _18
REMARK    8  A    between atoms: _17  and  _20
REMARK    9  A    between atoms: _20  and  _21
REMARK   10  A    between atoms: _27  and  _29
REMARK   11  A    between atoms: _29  and  _30
REMARK   12  A    between atoms: _29  and  _32
REMARK   13  A    between atoms: _32  and  _33
REMARK   14  A    between atoms: _33  and  _34
REMARK   15  A    between atoms: _34  and  _35
REMARK   16  A    between atoms: _44  and  _46
REMARK   17  A    between atoms: _46  and  _47
REMARK   18  A    between atoms: _46  and  _49
REMARK   19  A    between atoms: _49  and  _50
REMARK   20  A    between atoms: _50  and  _51
REMARK   21  A    between atoms: _56  and  _58
REMARK   22  A    between atoms: _58  and  _59
REMARK   23  A    between atoms: _58  and  _61
REMARK   24  A    between atoms: _61  and  _62
REMARK   25  A    between atoms: _65  and  _67
REMARK   26  A    between atoms: _67  and  _68
REMARK   27  A    between atoms: _67  and  _70
REMARK   28  A    between atoms: _70  and  _71
REMARK   29  A    between atoms: _81  and  _83
REMARK   30  A    between atoms: _83  and  _84
REMARK   31  A    between atoms: _83  and  _86
REMARK   32  A    between atoms: _89  and  _91
REMARK   33  A    between atoms: _91  and  _92
REMARK   34  A    between atoms: _91  and  _94
REMARK   35  A    between atoms: _94  and  _95
REMARK   36  A    between atoms: _98  and  _100
REMARK   37  A    between atoms: _100  and  _101
REMARK   38  A    between atoms: _100  and  _103
REMARK   39  A    between atoms: _103  and  _104
REMARK   40  A    between atoms: _106  and  _108
REMARK   41  A    between atoms: _108  and  _109
REMARK   42  A    between atoms: _108  and  _111
REMARK   43  A    between atoms: _111  and  _112
REMARK   44  A    between atoms: _116  and  _117
REMARK   45  A    between atoms: _123  and  _124
REMARK   46  A    between atoms: _130  and  _131
REMARK   47  A    between atoms: _136  and  _138
REMARK   48  A    between atoms: _138  and  _139
REMARK   49  A    between atoms: _141  and  _143
REMARK   50  A    between atoms: _143  and  _144
REMARK   51  A    between atoms: _143  and  _146
REMARK   52  A    between atoms: _146  and  _147
REMARK   53  A    between atoms: _150  and  _152
REMARK   54  A    between atoms: _152  and  _153
REMARK   55  A    between atoms: _152  and  _155
REMARK   56  A    between atoms: _155  and  _156
REMARK   57  A    between atoms: _156  and  _157
REMARK   58  A    between atoms: _157  and  _158
REMARK   59  A    between atoms: _167  and  _169
REMARK   60  A    between atoms: _169  and  _170
REMARK   61  A    between atoms: _169  and  _172
REMARK   62  A    between atoms: _175  and  _177
REMARK   63  A    between atoms: _177  and  _178
REMARK   64  A    between atoms: _177  and  _180
REMARK   65  A    between atoms: _180  and  _181
REMARK   66  A    between atoms: _181  and  _182
REMARK   67  A    between atoms: _182  and  _183
REMARK   68  A    between atoms: _193  and  _194
REMARK   69  A    between atoms: _199  and  _201
REMARK   70  A    between atoms: _201  and  _202
REMARK   71  A    between atoms: _201  and  _204
REMARK   72  A    between atoms: _206  and  _208
REMARK   73  A    between atoms: _208  and  _209
REMARK   74  A    between atoms: _208  and  _211
REMARK   75  A    between atoms: _211  and  _212
REMARK   76  A    between atoms: _212  and  _213
REMARK   77  A    between atoms: _217  and  _218
REMARK   78  A    between atoms: _224  and  _225
REMARK   79  A    between atoms: _230  and  _232
REMARK   80  A    between atoms: _232  and  _233
REMARK   81  A    between atoms: _232  and  _235
REMARK   82  A    between atoms: _235  and  _236
REMARK   83  A    between atoms: _238  and  _240
REMARK   84  A    between atoms: _240  and  _241
REMARK   85  A    between atoms: _240  and  _243
REMARK   86  A    between atoms: _243  and  _244
REMARK   87  A    between atoms: _247  and  _249
REMARK   88  A    between atoms: _249  and  _250
REMARK   89  A    between atoms: _249  and  _252
REMARK   90  A    between atoms: _254  and  _256
REMARK   91  A    between atoms: _256  and  _257
REMARK   92  A    between atoms: _256  and  _259
REMARK   93  A    between atoms: _259  and  _260
REMARK   94  A    between atoms: _263  and  _265
REMARK   95  A    between atoms: _265  and  _266
REMARK   96  A    between atoms: _265  and  _268
REMARK   97  A    between atoms: _268  and  _269
REMARK   98  A    between atoms: _272  and  _274
REMARK   99  A    between atoms: _274  and  _275
REMARK  100  A    between atoms: _274  and  _277
REMARK  101  A    between atoms: _277  and  _278
REMARK                            x       y       z     vdW  Elec       q    Type
REMARK                         _______ _______ _______ _____ _____    ______ ____
ROOT
ATOM      1  O   HOH     1      84.893  93.509 -38.242  0.00  0.00    +0.000 OA
ENDROOT
TORSDOF 0
REMARK  Name = ../refined-set-2016/4agp/4agp_pocket.pdb
REMARK  101 active torsions:
REMARK  status: ('A' for Active; 'I' for Inactive)
REMARK    1  A    between atoms: _1  and  _3
REMARK    2  A    between atoms: _3  and  _4
REMARK    3  A    between atoms: _3  and  _6
REMARK    4  A    between atoms: _6  and  _7
REMARK    5  A    between atoms: _12  and  _13
REMARK    6  A    between atoms: _15  and  _17
REMARK    7  A    between atoms: _17  and  _18
REMARK    8  A    between atoms: _17  and  _20
REMARK    9  A    between atoms: _20  and  _21
REMARK   10  A    between atoms: _27  and  _29
REMARK   11  A    between atoms: _29  and  _30
REMARK   12  A    between atoms: _29  and  _32
REMARK   13  A    between atoms: _32  and  _33
REMARK   14  A    between atoms: _33  and  _34
REMARK   15  A    between atoms: _34  and  _35
REMARK   16  A    between atoms: _44  and  _46
REMARK   17  A    between atoms: _46  and  _47
REMARK   18  A    between atoms: _46  and  _49
REMARK   19  A    between atoms: _49  and  _50
REMARK   20  A    between atoms: _50  and  _51
REMARK   21  A    between atoms: _56  and  _58
REMARK   22  A    between atoms: _58  and  _59
REMARK   23  A    between atoms: _58  and  _61
REMARK   24  A    between atoms: _61  and  _62
REMARK   25  A    between atoms: _65  and  _67
REMARK   26  A    between atoms: _67  and  _68
REMARK   27  A    between atoms: _67  and  _70
REMARK   28  A    between atoms: _70  and  _71
REMARK   29  A    between atoms: _81  and  _83
REMARK   30  A    between atoms: _83  and  _84
REMARK   31  A    between atoms: _83  and  _86
REMARK   32  A    between atoms: _89  and  _91
REMARK   33  A    between atoms: _91  and  _92
REMARK   34  A    between atoms: _91  and  _94
REMARK   35  A    between atoms: _94  and  _95
REMARK   36  A    between atoms: _98  and  _100
REMARK   37  A    between atoms: _100  and  _101
REMARK   38  A    between atoms: _100  and  _103
REMARK   39  A    between atoms: _103  and  _104
REMARK   40  A    between atoms: _106  and  _108
REMARK   41  A    between atoms: _108  and  _109
REMARK   42  A    between atoms: _108  and  _111
REMARK   43  A    between atoms: _111  and  _112
REMARK   44  A    between atoms: _116  and  _117
REMARK   45  A    between atoms: _123  and  _124
REMARK   46  A    between atoms: _130  and  _131
REMARK   47  A    between atoms: _136  and  _138
REMARK   48  A    between atoms: _138  and  _139
REMARK   49  A    between atoms: _141  and  _143
REMARK   50  A    between atoms: _143  and  _144
REMARK   51  A    between atoms: _143  and  _146
REMARK   52  A    between atoms: _146  and  _147
REMARK   53  A    between atoms: _150  and  _152
REMARK   54  A    between atoms: _152  and  _153
REMARK   55  A    between atoms: _152  and  _155
REMARK   56  A    between atoms: _155  and  _156
REMARK   57  A    between atoms: _156  and  _157
REMARK   58  A    between atoms: _157  and  _158
REMARK   59  A    between atoms: _167  and  _169
REMARK   60  A    between atoms: _169  and  _170
REMARK   61  A    between atoms: _169  and  _172
REMARK   62  A    between atoms: _175  and  _177
REMARK   63  A    between atoms: _177  and  _178
REMARK   64  A    between atoms: _177  and  _180
REMARK   65  A    between atoms: _180  and  _181
REMARK   66  A    between atoms: _181  and  _182
REMARK   67  A    between atoms: _182  and  _183
REMARK   68  A    between atoms: _193  and  _194
REMARK   69  A    between atoms: _199  and  _201
REMARK   70  A    between atoms: _201  and  _202
REMARK   71  A    between atoms: _201  and  _204
REMARK   72  A    between atoms: _206  and  _208
REMARK   73  A    between atoms: _208  and  _209
REMARK   74  A    between atoms: _208  and  _211
REMARK   75  A    between atoms: _211  and  _212
REMARK   76  A    between atoms: _212  and  _213
REMARK   77  A    between atoms: _217  and  _218
REMARK   78  A    between atoms: _224  and  _225
REMARK   79  A    between atoms: _230  and  _232
REMARK   80  A    between atoms: _232  and  _233
REMARK   81  A    between atoms: _232  and  _235
REMARK   82  A    between atoms: _235  and  _236
REMARK   83  A    between atoms: _238  and  _240
REMARK   84  A    between atoms: _240  and  _241
REMARK   85  A    between atoms: _240  and  _243
REMARK   86  A    between atoms: _243  and  _244
REMARK   87  A    between atoms: _247  and  _249
REMARK   88  A    between atoms: _249  and  _250
REMARK   89  A    between atoms: _249  and  _252
REMARK   90  A    between atoms: _254  and  _256
REMARK   91  A    between atoms: _256  and  _257
REMARK   92  A    between atoms: _256  and  _259
REMARK   93  A    between atoms: _259  and  _260
REMARK   94  A    between atoms: _263  and  _265
REMARK   95  A    between atoms: _265  and  _266
REMARK   96  A    between atoms: _265  and  _268
REMARK   97  A    between atoms: _268  and  _269
REMARK   98  A    between atoms: _272  and  _274
REMARK   99  A    between atoms: _274  and  _275
REMARK  100  A    between atoms: _274  and  _277
REMARK  101  A    between atoms: _277  and  _278
REMARK                            x       y       z     vdW  Elec       q    Type
REMARK                         _______ _______ _______ _____ _____    ______ ____
ROOT
ATOM      1  O   HOH     1      83.862  98.728 -42.503  0.00  0.00    +0.000 OA
ENDROOT
TORSDOF 0
REMARK  Name = ../refined-set-2016/4agp/4agp_pocket.pdb
REMARK  101 active torsions:
REMARK  status: ('A' for Active; 'I' for Inactive)
REMARK    1  A    between atoms: _1  and  _3
REMARK    2  A    between atoms: _3  and  _4
REMARK    3  A    between atoms: _3  and  _6
REMARK    4  A    between atoms: _6  and  _7
REMARK    5  A    between atoms: _12  and  _13
REMARK    6  A    between atoms: _15  and  _17
REMARK    7  A    between atoms: _17  and  _18
REMARK    8  A    between atoms: _17  and  _20
REMARK    9  A    between atoms: _20  and  _21
REMARK   10  A    between atoms: _27  and  _29
REMARK   11  A    between atoms: _29  and  _30
REMARK   12  A    between atoms: _29  and  _32
REMARK   13  A    between atoms: _32  and  _33
REMARK   14  A    between atoms: _33  and  _34
REMARK   15  A    between atoms: _34  and  _35
REMARK   16  A    between atoms: _44  and  _46
REMARK   17  A    between atoms: _46  and  _47
REMARK   18  A    between atoms: _46  and  _49
REMARK   19  A    between atoms: _49  and  _50
REMARK   20  A    between atoms: _50  and  _51
REMARK   21  A    between atoms: _56  and  _58
REMARK   22  A    between atoms: _58  and  _59
REMARK   23  A    between atoms: _58  and  _61
REMARK   24  A    between atoms: _61  and  _62
REMARK   25  A    between atoms: _65  and  _67
REMARK   26  A    between atoms: _67  and  _68
REMARK   27  A    between atoms: _67  and  _70
REMARK   28  A    between atoms: _70  and  _71
REMARK   29  A    between atoms: _81  and  _83
REMARK   30  A    between atoms: _83  and  _84
REMARK   31  A    between atoms: _83  and  _86
REMARK   32  A    between atoms: _89  and  _91
REMARK   33  A    between atoms: _91  and  _92
REMARK   34  A    between atoms: _91  and  _94
REMARK   35  A    between atoms: _94  and  _95
REMARK   36  A    between atoms: _98  and  _100
REMARK   37  A    between atoms: _100  and  _101
REMARK   38  A    between atoms: _100  and  _103
REMARK   39  A    between atoms: _103  and  _104
REMARK   40  A    between atoms: _106  and  _108
REMARK   41  A    between atoms: _108  and  _109
REMARK   42  A    between atoms: _108  and  _111
REMARK   43  A    between atoms: _111  and  _112
REMARK   44  A    between atoms: _116  and  _117
REMARK   45  A    between atoms: _123  and  _124
REMARK   46  A    between atoms: _130  and  _131
REMARK   47  A    between atoms: _136  and  _138
REMARK   48  A    between atoms: _138  and  _139
REMARK   49  A    between atoms: _141  and  _143
REMARK   50  A    between atoms: _143  and  _144
REMARK   51  A    between atoms: _143  and  _146
REMARK   52  A    between atoms: _146  and  _147
REMARK   53  A    between atoms: _150  and  _152
REMARK   54  A    between atoms: _152  and  _153
REMARK   55  A    between atoms: _152  and  _155
REMARK   56  A    between atoms: _155  and  _156
REMARK   57  A    between atoms: _156  and  _157
REMARK   58  A    between atoms: _157  and  _158
REMARK   59  A    between atoms: _167  and  _169
REMARK   60  A    between atoms: _169  and  _170
REMARK   61  A    between atoms: _169  and  _172
REMARK   62  A    between atoms: _175  and  _177
REMARK   63  A    between atoms: _177  and  _178
REMARK   64  A    between atoms: _177  and  _180
REMARK   65  A    between atoms: _180  and  _181
REMARK   66  A    between atoms: _181  and  _182
REMARK   67  A    between atoms: _182  and  _183
REMARK   68  A    between atoms: _193  and  _194
REMARK   69  A    between atoms: _199  and  _201
REMARK   70  A    between atoms: _201  and  _202
REMARK   71  A    between atoms: _201  and  _204
REMARK   72  A    between atoms: _206  and  _208
REMARK   73  A    between atoms: _208  and  _209
REMARK   74  A    between atoms: _208  and  _211
REMARK   75  A    between atoms: _211  and  _212
REMARK   76  A    between atoms: _212  and  _213
REMARK   77  A    between atoms: _217  and  _218
REMARK   78  A    between atoms: _224  and  _225
REMARK   79  A    between atoms: _230  and  _232
REMARK   80  A    between atoms: _232  and  _233
REMARK   81  A    between atoms: _232  and  _235
REMARK   82  A    between atoms: _235  and  _236
REMARK   83  A    between atoms: _238  and  _240
REMARK   84  A    between atoms: _240  and  _241
REMARK   85  A    between atoms: _240  and  _243
REMARK   86  A    between atoms: _243  and  _244
REMARK   87  A    between atoms: _247  and  _249
REMARK   88  A    between atoms: _249  and  _250
REMARK   89  A    between atoms: _249  and  _252
REMARK   90  A    between atoms: _254  and  _256
REMARK   91  A    between atoms: _256  and  _257
REMARK   92  A    between atoms: _256  and  _259
REMARK   93  A    between atoms: _259  and  _260
REMARK   94  A    between atoms: _263  and  _265
REMARK   95  A    between atoms: _265  and  _266
REMARK   96  A    between atoms: _265  and  _268
REMARK   97  A    between atoms: _268  and  _269
REMARK   98  A    between atoms: _272  and  _274
REMARK   99  A    between atoms: _274  and  _275
REMARK  100  A    between atoms: _274  and  _277
REMARK  101  A    between atoms: _277  and  _278
REMARK                            x       y       z     vdW  Elec       q    Type
REMARK                         _______ _______ _______ _____ _____    ______ ____
ROOT
ATOM      1  O   HOH     1      84.050 102.611 -40.143  0.00  0.00    +0.000 OA
ENDROOT
TORSDOF 0
REMARK  Name = ../refined-set-2016/4agp/4agp_pocket.pdb
REMARK  101 active torsions:
REMARK  status: ('A' for Active; 'I' for Inactive)
REMARK    1  A    between atoms: _1  and  _3
REMARK    2  A    between atoms: _3  and  _4
REMARK    3  A    between atoms: _3  and  _6
REMARK    4  A    between atoms: _6  and  _7
REMARK    5  A    between atoms: _12  and  _13
REMARK    6  A    between atoms: _15  and  _17
REMARK    7  A    between atoms: _17  and  _18
REMARK    8  A    between atoms: _17  and  _20
REMARK    9  A    between atoms: _20  and  _21
REMARK   10  A    between atoms: _27  and  _29
REMARK   11  A    between atoms: _29  and  _30
REMARK   12  A    between atoms: _29  and  _32
REMARK   13  A    between atoms: _32  and  _33
REMARK   14  A    between atoms: _33  and  _34
REMARK   15  A    between atoms: _34  and  _35
REMARK   16  A    between atoms: _44  and  _46
REMARK   17  A    between atoms: _46  and  _47
REMARK   18  A    between atoms: _46  and  _49
REMARK   19  A    between atoms: _49  and  _50
REMARK   20  A    between atoms: _50  and  _51
REMARK   21  A    between atoms: _56  and  _58
REMARK   22  A    between atoms: _58  and  _59
REMARK   23  A    between atoms: _58  and  _61
REMARK   24  A    between atoms: _61  and  _62
REMARK   25  A    between atoms: _65  and  _67
REMARK   26  A    between atoms: _67  and  _68
REMARK   27  A    between atoms: _67  and  _70
REMARK   28  A    between atoms: _70  and  _71
REMARK   29  A    between atoms: _81  and  _83
REMARK   30  A    between atoms: _83  and  _84
REMARK   31  A    between atoms: _83  and  _86
REMARK   32  A    between atoms: _89  and  _91
REMARK   33  A    between atoms: _91  and  _92
REMARK   34  A    between atoms: _91  and  _94
REMARK   35  A    between atoms: _94  and  _95
REMARK   36  A    between atoms: _98  and  _100
REMARK   37  A    between atoms: _100  and  _101
REMARK   38  A    between atoms: _100  and  _103
REMARK   39  A    between atoms: _103  and  _104
REMARK   40  A    between atoms: _106  and  _108
REMARK   41  A    between atoms: _108  and  _109
REMARK   42  A    between atoms: _108  and  _111
REMARK   43  A    between atoms: _111  and  _112
REMARK   44  A    between atoms: _116  and  _117
REMARK   45  A    between atoms: _123  and  _124
REMARK   46  A    between atoms: _130  and  _131
REMARK   47  A    between atoms: _136  and  _138
REMARK   48  A    between atoms: _138  and  _139
REMARK   49  A    between atoms: _141  and  _143
REMARK   50  A    between atoms: _143  and  _144
REMARK   51  A    between atoms: _143  and  _146
REMARK   52  A    between atoms: _146  and  _147
REMARK   53  A    between atoms: _150  and  _152
REMARK   54  A    between atoms: _152  and  _153
REMARK   55  A    between atoms: _152  and  _155
REMARK   56  A    between atoms: _155  and  _156
REMARK   57  A    between atoms: _156  and  _157
REMARK   58  A    between atoms: _157  and  _158
REMARK   59  A    between atoms: _167  and  _169
REMARK   60  A    between atoms: _169  and  _170
REMARK   61  A    between atoms: _169  and  _172
REMARK   62  A    between atoms: _175  and  _177
REMARK   63  A    between atoms: _177  and  _178
REMARK   64  A    between atoms: _177  and  _180
REMARK   65  A    between atoms: _180  and  _181
REMARK   66  A    between atoms: _181  and  _182
REMARK   67  A    between atoms: _182  and  _183
REMARK   68  A    between atoms: _193  and  _194
REMARK   69  A    between atoms: _199  and  _201
REMARK   70  A    between atoms: _201  and  _202
REMARK   71  A    between atoms: _201  and  _204
REMARK   72  A    between atoms: _206  and  _208
REMARK   73  A    between atoms: _208  and  _209
REMARK   74  A    between atoms: _208  and  _211
REMARK   75  A    between atoms: _211  and  _212
REMARK   76  A    between atoms: _212  and  _213
REMARK   77  A    between atoms: _217  and  _218
REMARK   78  A    between atoms: _224  and  _225
REMARK   79  A    between atoms: _230  and  _232
REMARK   80  A    between atoms: _232  and  _233
REMARK   81  A    between atoms: _232  and  _235
REMARK   82  A    between atoms: _235  and  _236
REMARK   83  A    between atoms: _238  and  _240
REMARK   84  A    between atoms: _240  and  _241
REMARK   85  A    between atoms: _240  and  _243
REMARK   86  A    between atoms: _243  and  _244
REMARK   87  A    between atoms: _247  and  _249
REMARK   88  A    between atoms: _249  and  _250
REMARK   89  A    between atoms: _249  and  _252
REMARK   90  A    between atoms: _254  and  _256
REMARK   91  A    between atoms: _256  and  _257
REMARK   92  A    between atoms: _256  and  _259
REMARK   93  A    between atoms: _259  and  _260
REMARK   94  A    between atoms: _263  and  _265
REMARK   95  A    between atoms: _265  and  _266
REMARK   96  A    between atoms: _265  and  _268
REMARK   97  A    between atoms: _268  and  _269
REMARK   98  A    between atoms: _272  and  _274
REMARK   99  A    between atoms: _274  and  _275
REMARK  100  A    between atoms: _274  and  _277
REMARK  101  A    between atoms: _277  and  _278
REMARK                            x       y       z     vdW  Elec       q    Type
REMARK                         _______ _______ _______ _____ _____    ______ ____
ROOT
ATOM      1  O   HOH     1      90.784 101.070 -40.446  0.00  0.00    +0.000 OA
ENDROOT
TORSDOF 0
REMARK  Name = ../refined-set-2016/4agp/4agp_pocket.pdb
REMARK  101 active torsions:
REMARK  status: ('A' for Active; 'I' for Inactive)
REMARK    1  A    between atoms: _1  and  _3
REMARK    2  A    between atoms: _3  and  _4
REMARK    3  A    between atoms: _3  and  _6
REMARK    4  A    between atoms: _6  and  _7
REMARK    5  A    between atoms: _12  and  _13
REMARK    6  A    between atoms: _15  and  _17
REMARK    7  A    between atoms: _17  and  _18
REMARK    8  A    between atoms: _17  and  _20
REMARK    9  A    between atoms: _20  and  _21
REMARK   10  A    between atoms: _27  and  _29
REMARK   11  A    between atoms: _29  and  _30
REMARK   12  A    between atoms: _29  and  _32
REMARK   13  A    between atoms: _32  and  _33
REMARK   14  A    between atoms: _33  and  _34
REMARK   15  A    between atoms: _34  and  _35
REMARK   16  A    between atoms: _44  and  _46
REMARK   17  A    between atoms: _46  and  _47
REMARK   18  A    between atoms: _46  and  _49
REMARK   19  A    between atoms: _49  and  _50
REMARK   20  A    between atoms: _50  and  _51
REMARK   21  A    between atoms: _56  and  _58
REMARK   22  A    between atoms: _58  and  _59
REMARK   23  A    between atoms: _58  and  _61
REMARK   24  A    between atoms: _61  and  _62
REMARK   25  A    between atoms: _65  and  _67
REMARK   26  A    between atoms: _67  and  _68
REMARK   27  A    between atoms: _67  and  _70
REMARK   28  A    between atoms: _70  and  _71
REMARK   29  A    between atoms: _81  and  _83
REMARK   30  A    between atoms: _83  and  _84
REMARK   31  A    between atoms: _83  and  _86
REMARK   32  A    between atoms: _89  and  _91
REMARK   33  A    between atoms: _91  and  _92
REMARK   34  A    between atoms: _91  and  _94
REMARK   35  A    between atoms: _94  and  _95
REMARK   36  A    between atoms: _98  and  _100
REMARK   37  A    between atoms: _100  and  _101
REMARK   38  A    between atoms: _100  and  _103
REMARK   39  A    between atoms: _103  and  _104
REMARK   40  A    between atoms: _106  and  _108
REMARK   41  A    between atoms: _108  and  _109
REMARK   42  A    between atoms: _108  and  _111
REMARK   43  A    between atoms: _111  and  _112
REMARK   44  A    between atoms: _116  and  _117
REMARK   45  A    between atoms: _123  and  _124
REMARK   46  A    between atoms: _130  and  _131
REMARK   47  A    between atoms: _136  and  _138
REMARK   48  A    between atoms: _138  and  _139
REMARK   49  A    between atoms: _141  and  _143
REMARK   50  A    between atoms: _143  and  _144
REMARK   51  A    between atoms: _143  and  _146
REMARK   52  A    between atoms: _146  and  _147
REMARK   53  A    between atoms: _150  and  _152
REMARK   54  A    between atoms: _152  and  _153
REMARK   55  A    between atoms: _152  and  _155
REMARK   56  A    between atoms: _155  and  _156
REMARK   57  A    between atoms: _156  and  _157
REMARK   58  A    between atoms: _157  and  _158
REMARK   59  A    between atoms: _167  and  _169
REMARK   60  A    between atoms: _169  and  _170
REMARK   61  A    between atoms: _169  and  _172
REMARK   62  A    between atoms: _175  and  _177
REMARK   63  A    between atoms: _177  and  _178
REMARK   64  A    between atoms: _177  and  _180
REMARK   65  A    between atoms: _180  and  _181
REMARK   66  A    between atoms: _181  and  _182
REMARK   67  A    between atoms: _182  and  _183
REMARK   68  A    between atoms: _193  and  _194
REMARK   69  A    between atoms: _199  and  _201
REMARK   70  A    between atoms: _201  and  _202
REMARK   71  A    between atoms: _201  and  _204
REMARK   72  A    between atoms: _206  and  _208
REMARK   73  A    between atoms: _208  and  _209
REMARK   74  A    between atoms: _208  and  _211
REMARK   75  A    between atoms: _211  and  _212
REMARK   76  A    between atoms: _212  and  _213
REMARK   77  A    between atoms: _217  and  _218
REMARK   78  A    between atoms: _224  and  _225
REMARK   79  A    between atoms: _230  and  _232
REMARK   80  A    between atoms: _232  and  _233
REMARK   81  A    between atoms: _232  and  _235
REMARK   82  A    between atoms: _235  and  _236
REMARK   83  A    between atoms: _238  and  _240
REMARK   84  A    between atoms: _240  and  _241
REMARK   85  A    between atoms: _240  and  _243
REMARK   86  A    between atoms: _243  and  _244
REMARK   87  A    between atoms: _247  and  _249
REMARK   88  A    between atoms: _249  and  _250
REMARK   89  A    between atoms: _249  and  _252
REMARK   90  A    between atoms: _254  and  _256
REMARK   91  A    between atoms: _256  and  _257
REMARK   92  A    between atoms: _256  and  _259
REMARK   93  A    between atoms: _259  and  _260
REMARK   94  A    between atoms: _263  and  _265
REMARK   95  A    between atoms: _265  and  _266
REMARK   96  A    between atoms: _265  and  _268
REMARK   97  A    between atoms: _268  and  _269
REMARK   98  A    between atoms: _272  and  _274
REMARK   99  A    between atoms: _274  and  _275
REMARK  100  A    between atoms: _274  and  _277
REMARK  101  A    between atoms: _277  and  _278
REMARK                            x       y       z     vdW  Elec       q    Type
REMARK                         _______ _______ _______ _____ _____    ______ ____
ROOT
ATOM      1  O   HOH     1      88.297 102.089 -41.585  0.00  0.00    +0.000 OA
ENDROOT
TORSDOF 0
REMARK  Name = ../refined-set-2016/4agp/4agp_pocket.pdb
REMARK  101 active torsions:
REMARK  status: ('A' for Active; 'I' for Inactive)
REMARK    1  A    between atoms: _1  and  _3
REMARK    2  A    between atoms: _3  and  _4
REMARK    3  A    between atoms: _3  and  _6
REMARK    4  A    between atoms: _6  and  _7
REMARK    5  A    between atoms: _12  and  _13
REMARK    6  A    between atoms: _15  and  _17
REMARK    7  A    between atoms: _17  and  _18
REMARK    8  A    between atoms: _17  and  _20
REMARK    9  A    between atoms: _20  and  _21
REMARK   10  A    between atoms: _27  and  _29
REMARK   11  A    between atoms: _29  and  _30
REMARK   12  A    between atoms: _29  and  _32
REMARK   13  A    between atoms: _32  and  _33
REMARK   14  A    between atoms: _33  and  _34
REMARK   15  A    between atoms: _34  and  _35
REMARK   16  A    between atoms: _44  and  _46
REMARK   17  A    between atoms: _46  and  _47
REMARK   18  A    between atoms: _46  and  _49
REMARK   19  A    between atoms: _49  and  _50
REMARK   20  A    between atoms: _50  and  _51
REMARK   21  A    between atoms: _56  and  _58
REMARK   22  A    between atoms: _58  and  _59
REMARK   23  A    between atoms: _58  and  _61
REMARK   24  A    between atoms: _61  and  _62
REMARK   25  A    between atoms: _65  and  _67
REMARK   26  A    between atoms: _67  and  _68
REMARK   27  A    between atoms: _67  and  _70
REMARK   28  A    between atoms: _70  and  _71
REMARK   29  A    between atoms: _81  and  _83
REMARK   30  A    between atoms: _83  and  _84
REMARK   31  A    between atoms: _83  and  _86
REMARK   32  A    between atoms: _89  and  _91
REMARK   33  A    between atoms: _91  and  _92
REMARK   34  A    between atoms: _91  and  _94
REMARK   35  A    between atoms: _94  and  _95
REMARK   36  A    between atoms: _98  and  _100
REMARK   37  A    between atoms: _100  and  _101
REMARK   38  A    between atoms: _100  and  _103
REMARK   39  A    between atoms: _103  and  _104
REMARK   40  A    between atoms: _106  and  _108
REMARK   41  A    between atoms: _108  and  _109
REMARK   42  A    between atoms: _108  and  _111
REMARK   43  A    between atoms: _111  and  _112
REMARK   44  A    between atoms: _116  and  _117
REMARK   45  A    between atoms: _123  and  _124
REMARK   46  A    between atoms: _130  and  _131
REMARK   47  A    between atoms: _136  and  _138
REMARK   48  A    between atoms: _138  and  _139
REMARK   49  A    between atoms: _141  and  _143
REMARK   50  A    between atoms: _143  and  _144
REMARK   51  A    between atoms: _143  and  _146
REMARK   52  A    between atoms: _146  and  _147
REMARK   53  A    between atoms: _150  and  _152
REMARK   54  A    between atoms: _152  and  _153
REMARK   55  A    between atoms: _152  and  _155
REMARK   56  A    between atoms: _155  and  _156
REMARK   57  A    between atoms: _156  and  _157
REMARK   58  A    between atoms: _157  and  _158
REMARK   59  A    between atoms: _167  and  _169
REMARK   60  A    between atoms: _169  and  _170
REMARK   61  A    between atoms: _169  and  _172
REMARK   62  A    between atoms: _175  and  _177
REMARK   63  A    between atoms: _177  and  _178
REMARK   64  A    between atoms: _177  and  _180
REMARK   65  A    between atoms: _180  and  _181
REMARK   66  A    between atoms: _181  and  _182
REMARK   67  A    between atoms: _182  and  _183
REMARK   68  A    between atoms: _193  and  _194
REMARK   69  A    between atoms: _199  and  _201
REMARK   70  A    between atoms: _201  and  _202
REMARK   71  A    between atoms: _201  and  _204
REMARK   72  A    between atoms: _206  and  _208
REMARK   73  A    between atoms: _208  and  _209
REMARK   74  A    between atoms: _208  and  _211
REMARK   75  A    between atoms: _211  and  _212
REMARK   76  A    between atoms: _212  and  _213
REMARK   77  A    between atoms: _217  and  _218
REMARK   78  A    between atoms: _224  and  _225
REMARK   79  A    between atoms: _230  and  _232
REMARK   80  A    between atoms: _232  and  _233
REMARK   81  A    between atoms: _232  and  _235
REMARK   82  A    between atoms: _235  and  _236
REMARK   83  A    between atoms: _238  and  _240
REMARK   84  A    between atoms: _240  and  _241
REMARK   85  A    between atoms: _240  and  _243
REMARK   86  A    between atoms: _243  and  _244
REMARK   87  A    between atoms: _247  and  _249
REMARK   88  A    between atoms: _249  and  _250
REMARK   89  A    between atoms: _249  and  _252
REMARK   90  A    between atoms: _254  and  _256
REMARK   91  A    between atoms: _256  and  _257
REMARK   92  A    between atoms: _256  and  _259
REMARK   93  A    between atoms: _259  and  _260
REMARK   94  A    between atoms: _263  and  _265
REMARK   95  A    between atoms: _265  and  _266
REMARK   96  A    between atoms: _265  and  _268
REMARK   97  A    between atoms: _268  and  _269
REMARK   98  A    between atoms: _272  and  _274
REMARK   99  A    between atoms: _274  and  _275
REMARK  100  A    between atoms: _274  and  _277
REMARK  101  A    between atoms: _277  and  _278
REMARK                            x       y       z     vdW  Elec       q    Type
REMARK                         _______ _______ _______ _____ _____    ______ ____
ROOT
ATOM      1  O   HOH     1      85.846  90.798 -37.863  0.00  0.00    +0.000 OA
ENDROOT
TORSDOF 0
