REMARK  Name = ../refined-set-2016/2iw4/2iw4_pocket.pdb
REMARK  157 active torsions:
REMARK  status: ('A' for Active; 'I' for Inactive)
REMARK    1  A    between atoms: _1  and  _3
REMARK    2  A    between atoms: _14  and  _17
REMARK    3  A    between atoms: _17  and  _18
REMARK    4  A    between atoms: _18  and  _19
REMARK    5  A    between atoms: _26  and  _29
REMARK    6  A    between atoms: _29  and  _30
REMARK    7  A    between atoms: _53  and  _56
REMARK    8  A    between atoms: _56  and  _57
REMARK    9  A    between atoms: _62  and  _63
REMARK   10  A    between atoms: _69  and  _71
REMARK   11  A    between atoms: _71  and  _72
REMARK   12  A    between atoms: _71  and  _74
REMARK   13  A    between atoms: _74  and  _75
REMARK   14  A    between atoms: _78  and  _80
REMARK   15  A    between atoms: _80  and  _81
REMARK   16  A    between atoms: _80  and  _83
REMARK   17  A    between atoms: _86  and  _88
REMARK   18  A    between atoms: _88  and  _89
REMARK   19  A    between atoms: _88  and  _91
REMARK   20  A    between atoms: _91  and  _92
REMARK   21  A    between atoms: _95  and  _97
REMARK   22  A    between atoms: _97  and  _98
REMARK   23  A    between atoms: _97  and  _100
REMARK   24  A    between atoms: _100  and  _101
REMARK   25  A    between atoms: _106  and  _108
REMARK   26  A    between atoms: _108  and  _109
REMARK   27  A    between atoms: _108  and  _111
REMARK   28  A    between atoms: _111  and  _112
REMARK   29  A    between atoms: _112  and  _113
REMARK   30  A    between atoms: _118  and  _120
REMARK   31  A    between atoms: _120  and  _121
REMARK   32  A    between atoms: _120  and  _123
REMARK   33  A    between atoms: _123  and  _124
REMARK   34  A    between atoms: _127  and  _129
REMARK   35  A    between atoms: _129  and  _130
REMARK   36  A    between atoms: _129  and  _132
REMARK   37  A    between atoms: _132  and  _133
REMARK   38  A    between atoms: _137  and  FE_415
REMARK   39  A    between atoms: _138  and  _140
REMARK   40  A    between atoms: _140  and  _141
REMARK   41  A    between atoms: _140  and  _143
REMARK   42  A    between atoms: _143  and  _144
REMARK   43  A    between atoms: _144  and  _145
REMARK   44  A    between atoms: _150  and  _152
REMARK   45  A    between atoms: _152  and  _153
REMARK   46  A    between atoms: _152  and  _155
REMARK   47  A    between atoms: _155  and  _156
REMARK   48  A    between atoms: _156  and  _157
REMARK   49  A    between atoms: _157  and  _158
REMARK   50  A    between atoms: _167  and  _169
REMARK   51  A    between atoms: _169  and  _170
REMARK   52  A    between atoms: _169  and  _172
REMARK   53  A    between atoms: _175  and  _177
REMARK   54  A    between atoms: _177  and  _178
REMARK   55  A    between atoms: _180  and  _182
REMARK   56  A    between atoms: _182  and  _183
REMARK   57  A    between atoms: _182  and  _185
REMARK   58  A    between atoms: _187  and  _189
REMARK   59  A    between atoms: _189  and  _190
REMARK   60  A    between atoms: _189  and  _192
REMARK   61  A    between atoms: _192  and  _193
REMARK   62  A    between atoms: _196  and  _198
REMARK   63  A    between atoms: _198  and  _199
REMARK   64  A    between atoms: _202  and  _204
REMARK   65  A    between atoms: _204  and  _205
REMARK   66  A    between atoms: _208  and  _210
REMARK   67  A    between atoms: _210  and  _211
REMARK   68  A    between atoms: _210  and  _213
REMARK   69  A    between atoms: _213  and  _214
REMARK   70  A    between atoms: _216  and  _218
REMARK   71  A    between atoms: _218  and  _219
REMARK   72  A    between atoms: _218  and  _221
REMARK   73  A    between atoms: _221  and  _222
REMARK   74  A    between atoms: _222  and  _223
REMARK   75  A    between atoms: _222  and  _224
REMARK   76  A    between atoms: _224  and  FE_415
REMARK   77  A    between atoms: _225  and  _227
REMARK   78  A    between atoms: _227  and  _228
REMARK   79  A    between atoms: _227  and  _230
REMARK   80  A    between atoms: _230  and  _231
REMARK   81  A    between atoms: _233  and  _235
REMARK   82  A    between atoms: _235  and  _236
REMARK   83  A    between atoms: _235  and  _238
REMARK   84  A    between atoms: _238  and  _239
REMARK   85  A    between atoms: _242  and  _244
REMARK   86  A    between atoms: _244  and  _245
REMARK   87  A    between atoms: _244  and  _247
REMARK   88  A    between atoms: _247  and  _248
REMARK   89  A    between atoms: _250  and  _252
REMARK   90  A    between atoms: _252  and  _253
REMARK   91  A    between atoms: _252  and  _255
REMARK   92  A    between atoms: _255  and  _256
REMARK   93  A    between atoms: _259  and  _261
REMARK   94  A    between atoms: _261  and  _262
REMARK   95  A    between atoms: _261  and  _264
REMARK   96  A    between atoms: _264  and  _265
REMARK   97  A    between atoms: _268  and  _270
REMARK   98  A    between atoms: _270  and  _271
REMARK   99  A    between atoms: _274  and  _276
REMARK  100  A    between atoms: _276  and  _277
REMARK  101  A    between atoms: _276  and  _279
REMARK  102  A    between atoms: _279  and  _280
REMARK  103  A    between atoms: _280  and  _281
REMARK  104  A    between atoms: _281  and  _282
REMARK  105  A    between atoms: _282  and  _283
REMARK  106  A    between atoms: _287  and  _289
REMARK  107  A    between atoms: _289  and  _290
REMARK  108  A    between atoms: _289  and  _292
REMARK  109  A    between atoms: _292  and  _293
REMARK  110  A    between atoms: _299  and  _301
REMARK  111  A    between atoms: _301  and  _302
REMARK  112  A    between atoms: _301  and  _304
REMARK  113  A    between atoms: _304  and  _305
REMARK  114  A    between atoms: _308  and  _310
REMARK  115  A    between atoms: _310  and  _311
REMARK  116  A    between atoms: _310  and  _313
REMARK  117  A    between atoms: _313  and  _314
REMARK  118  A    between atoms: _314  and  _315
REMARK  119  A    between atoms: _320  and  _322
REMARK  120  A    between atoms: _322  and  _323
REMARK  121  A    between atoms: _322  and  _325
REMARK  122  A    between atoms: _328  and  _330
REMARK  123  A    between atoms: _330  and  _331
REMARK  124  A    between atoms: _330  and  _333
REMARK  125  A    between atoms: _333  and  _334
REMARK  126  A    between atoms: _336  and  _338
REMARK  127  A    between atoms: _338  and  _339
REMARK  128  A    between atoms: _338  and  _341
REMARK  129  A    between atoms: _341  and  _342
REMARK  130  A    between atoms: _342  and  _343
REMARK  131  A    between atoms: _343  and  _344
REMARK  132  A    between atoms: _353  and  _355
REMARK  133  A    between atoms: _355  and  _356
REMARK  134  A    between atoms: _355  and  _358
REMARK  135  A    between atoms: _358  and  _359
REMARK  136  A    between atoms: _359  and  _360
REMARK  137  A    between atoms: _360  and  _361
REMARK  138  A    between atoms: _361  and  _362
REMARK  139  A    between atoms: _366  and  _368
REMARK  140  A    between atoms: _368  and  _369
REMARK  141  A    between atoms: _368  and  _371
REMARK  142  A    between atoms: _371  and  _372
REMARK  143  A    between atoms: _372  and  _373
REMARK  144  A    between atoms: _373  and  _374
REMARK  145  A    between atoms: _374  and  _375
REMARK  146  A    between atoms: _379  and  _381
REMARK  147  A    between atoms: _381  and  _382
REMARK  148  A    between atoms: _381  and  _384
REMARK  149  A    between atoms: _384  and  _385
REMARK  150  A    between atoms: _385  and  _386
REMARK  151  A    between atoms: _391  and  _393
REMARK  152  A    between atoms: _393  and  _394
REMARK  153  A    between atoms: _393  and  _396
REMARK  154  A    between atoms: _399  and  _401
REMARK  155  A    between atoms: _401  and  _402
REMARK  156  A    between atoms: _401  and  _404
REMARK  157  A    between atoms: _408  and  _409
REMARK                            x       y       z     vdW  Elec       q    Type
REMARK                         _______ _______ _______ _____ _____    ______ ____
ROOT
ATOM      1  C   UNK A   1     -38.802 -68.407  43.572  0.00  0.00    +0.000 C 
ATOM      2  C   UNK A   1     -40.021 -68.073  44.444  0.00  0.00    +0.000 C 
ATOM      3  C   UNK A   1     -39.750 -67.050  45.492  0.00  0.00    +0.000 A 
ATOM      4  C   UNK A   1     -39.500 -67.184  46.815  0.00  0.00    +0.000 A 
ATOM      5  N   UNK A   1     -39.325 -65.918  47.324  0.00  0.00    +0.000 N 
ATOM      6 MN   UNK A   1     -38.863 -65.419  49.504  0.00  0.00    +0.000 Mn
ATOM      7  O   UNK A   1     -38.087 -64.617  51.236  0.00  0.00    +0.000 OA
ATOM      8  O   UNK A   1     -37.653 -67.097  49.256  0.00  0.00    +0.000 OA
ATOM      9  C   UNK A   1     -37.565 -68.063  50.054  0.00  0.00    +0.000 C 
ATOM     10  O   UNK A   1     -38.129 -68.093  51.175  0.00  0.00    +0.000 OA
ATOM     11 FE   UNK A   1     -38.189 -66.435  52.678  0.00  0.00    +0.000 Fe
ATOM     12  O   UNK A   1     -36.075 -66.929  53.028  0.00  0.00    +0.000 OA
ATOM     13  C   UNK A   1     -35.052 -66.311  52.674  0.00  0.00    +0.000 C 
ATOM     14  O   UNK A   1     -33.919 -66.735  52.966  0.00  0.00    +0.000 OA
ATOM     15  C   UNK A   1     -35.208 -64.997  51.910  0.00  0.00    +0.000 C 
ATOM     16  C   UNK A   1     -33.972 -64.605  51.099  0.00  0.00    +0.000 C 
ATOM     17  N   UNK A   1     -34.105 -63.217  50.591  0.00  0.00    +0.000 N 
ATOM     18  H   UNK A   1     -34.998 -62.701  50.727  0.00  0.00    +0.000 HD
ATOM     19  C   THR A   6     -33.093 -62.628  49.964  0.00  0.00    +0.000 C 
ATOM     20  O   THR A   6     -32.012 -63.196  49.769  0.00  0.00    +0.000 OA
ATOM     21  CA  THR A   6     -33.340 -61.218  49.404  0.00  0.00    +0.000 C 
ATOM     22  N   THR A   6     -34.668 -61.119  48.806  0.00  0.00    +0.000 N 
ATOM     23  H   THR A   6     -35.359 -60.457  49.214  0.00  0.00    +0.000 HD
ATOM     24  C   UNK A   5     -35.016 -61.852  47.755  0.00  0.00    +0.000 C 
ATOM     25  O   UNK A   5     -34.281 -62.704  47.272  0.00  0.00    +0.000 OA
ATOM     26  C   UNK A   5     -36.399 -61.575  47.161  0.00  0.00    +0.000 C 
ATOM     27  C   UNK A   5     -37.483 -61.583  48.240  0.00  0.00    +0.000 C 
ATOM     28  C   UNK A   5     -37.867 -62.960  48.647  0.00  0.00    +0.000 C 
ATOM     29  O   UNK A   5     -37.027 -63.874  48.582  0.00  0.00    +0.000 OA
ATOM     30  N   UNK A   5     -36.713 -62.498  46.076  0.00  0.00    +0.000 N 
ATOM     31  H   UNK A   5     -37.019 -63.469  46.290  0.00  0.00    +0.000 HD
ATOM     32  C   PRO A   4     -36.607 -62.095  44.808  0.00  0.00    +0.000 C 
ATOM     33  O   PRO A   4     -36.493 -60.911  44.492  0.00  0.00    +0.000 OA
ATOM     34  CA  PRO A   4     -36.655 -63.177  43.719  0.00  0.00    +0.000 C 
ATOM     35  CB  PRO A   4     -35.267 -63.332  43.099  0.00  0.00    +0.000 C 
ATOM     36  CG  PRO A   4     -35.339 -62.702  41.735  0.00  0.00    +0.000 C 
ATOM     37  CD  PRO A   4     -36.737 -62.919  41.297  0.00  0.00    +0.000 C 
ATOM     38  N   PRO A   4     -37.498 -62.876  42.563  0.00  0.00    +0.000 N 
ATOM     39  C   HIS A   3     -38.797 -62.586  42.700  0.00  0.00    +0.000 C 
ATOM     40  O   HIS A   3     -39.339 -62.461  43.815  0.00  0.00    +0.000 OA
ATOM     41  CA  HIS A   3     -39.619 -62.528  41.397  0.00  0.00    +0.000 C 
ATOM     42  N   HIS A   3     -39.610 -63.833  40.709  0.00  0.00    +0.000 N 
ATOM     43  C   UNK A   2     -39.938 -64.968  41.335  0.00  0.00    +0.000 C 
ATOM     44  O   UNK A   2     -40.383 -65.012  42.497  0.00  0.00    +0.000 OA
ATOM     45  C   UNK A   2     -39.746 -66.268  40.557  0.00  0.00    +0.000 C 
ATOM     46  N   UNK A   2     -39.542 -67.344  41.533  0.00  0.00    +0.000 N 
ATOM     47  H   UNK A   2     -40.172 -68.170  41.479  0.00  0.00    +0.000 HD
ATOM     48  H   HIS A   3     -39.340 -63.871  39.705  0.00  0.00    +0.000 HD
ATOM     49  O   UNK A   1     -39.043 -63.165  49.058  0.00  0.00    +0.000 OA
ATOM     50  C   UNK A   1     -39.473 -65.033  46.355  0.00  0.00    +0.000 A 
ATOM     51  N   UNK A   1     -39.727 -65.691  45.234  0.00  0.00    +0.000 NA
ATOM     52  C   UNK A   1     -38.607 -67.340  42.486  0.00  0.00    +0.000 C 
ATOM     53  O   UNK A   1     -37.642 -66.559  42.509  0.00  0.00    +0.000 OA
ENDROOT
BRANCH  11  54
ATOM     54  N   UNK A   1     -38.836 -68.023  54.272  0.00  0.00    +0.000 N 
ATOM     55  C   UNK A   1     -39.250 -67.549  55.438  0.00  0.00    +0.000 A 
ATOM     56  N   UNK A   1     -39.576 -68.571  56.214  0.00  0.00    +0.000 NA
ATOM     57  C   UNK A   1     -39.407 -69.750  55.512  0.00  0.00    +0.000 A 
ATOM     58  C   UNK A   1     -38.919 -69.394  54.291  0.00  0.00    +0.000 A 
BRANCH  57  59
ATOM     59  C   UNK A   1     -39.704 -71.086  56.119  0.00  0.00    +0.000 C 
BRANCH  59  60
ATOM     60  C   UNK A   1     -40.476 -72.064  55.208  0.00  0.00    +0.000 C 
BRANCH  60  61
ATOM     61  N   UNK A   1     -39.681 -72.431  54.049  0.00  0.00    +0.000 N 
ATOM     62  C   UNK A   1     -38.780 -73.416  54.112  0.00  0.00    +0.000 C 
ATOM     63  O   UNK A   1     -38.533 -74.009  55.162  0.00  0.00    +0.000 OA
ATOM     64  H   UNK A   1     -39.815 -71.918  53.154  0.00  0.00    +0.000 HD
BRANCH  62  65
ATOM     65  C   UNK A   1     -38.049 -73.778  52.806  0.00  0.00    +0.000 C 
BRANCH  65  66
ATOM     66  N   UNK A   1     -36.975 -74.768  53.016  0.00  0.00    +0.000 NA
ATOM     67  H   UNK A   1     -36.974 -75.400  53.842  0.00  0.00    +0.000 HD
ENDBRANCH  65  66
BRANCH  65  68
ATOM     68  C   UNK A   1     -39.031 -74.333  51.749  0.00  0.00    +0.000 C 
BRANCH  68  69
ATOM     69  C   UNK A   1     -40.070 -73.289  51.288  0.00  0.00    +0.000 C 
ATOM     70  O   UNK A   1     -39.791 -72.081  51.382  0.00  0.00    +0.000 OA
ATOM     71  O   UNK A   1     -41.188 -73.670  50.897  0.00  0.00    +0.000 OA
ENDBRANCH  68  69
ENDBRANCH  65  68
ENDBRANCH  62  65
ENDBRANCH  60  61
BRANCH  60  72
ATOM     72  C   UNK A   1     -41.852 -71.524  54.806  0.00  0.00    +0.000 C 
ATOM     73  O   UNK A   1     -42.460 -70.774  55.580  0.00  0.00    +0.000 OA
ATOM     74  N   HIS A   3     -42.320 -71.901  53.599  0.00  0.00    +0.000 N 
ATOM     75  H   HIS A   3     -41.687 -72.431  52.966  0.00  0.00    +0.000 HD
BRANCH  74  76
ATOM     76  CA  HIS A   3     -43.668 -71.602  53.140  0.00  0.00    +0.000 C 
BRANCH  76  77
ATOM     77  C   HIS A   3     -44.571 -72.785  53.389  0.00  0.00    +0.000 C 
ATOM     78  O   HIS A   3     -44.105 -73.893  53.685  0.00  0.00    +0.000 OA
ATOM     79  N   PRO A   4     -45.876 -72.589  53.197  0.00  0.00    +0.000 N 
ATOM     80  H   PRO A   4     -46.238 -71.622  53.068  0.00  0.00    +0.000 HD
BRANCH  79  81
ATOM     81  CA  PRO A   4     -46.802 -73.716  53.166  0.00  0.00    +0.000 C 
BRANCH  81  82
ATOM     82  C   PRO A   4     -46.429 -74.598  51.962  0.00  0.00    +0.000 C 
ATOM     83  O   PRO A   4     -45.750 -74.129  50.998  0.00  0.00    +0.000 OA
ENDBRANCH  81  82
BRANCH  81  84
ATOM     84  CB  PRO A   4     -48.253 -73.229  53.069  0.00  0.00    +0.000 C 
BRANCH  84  85
ATOM     85  CG  PRO A   4     -48.630 -72.511  51.721  0.00  0.00    +0.000 C 
BRANCH  85  86
ATOM     86  CD  PRO A   4     -49.084 -73.458  50.611  0.00  0.00    +0.000 C 
BRANCH  86  87
ATOM     87  NE  PRO A   4     -49.954 -72.845  49.596  0.00  0.00    +0.330 N 
ATOM     88  CZ  PRO A   4     -51.274 -72.746  49.716  0.00  0.00    +0.000 C 
ATOM     89  NH2 PRO A   4     -51.859 -73.171  50.822  0.00  0.00    +0.330 N 
ATOM     90 HH21 PRO A   4     -51.287 -73.579  51.589  0.00  0.00    +0.000 HD
ATOM     91 HH22 PRO A   4     -52.891 -73.098  50.925  0.00  0.00    +0.000 HD
ATOM     92  NH1 PRO A   4     -52.008 -72.210  48.739  0.00  0.00    +0.330 N 
ATOM     93 HH11 PRO A   4     -53.040 -72.138  48.844  0.00  0.00    +0.000 HD
ATOM     94 HH12 PRO A   4     -51.548 -71.865  47.873  0.00  0.00    +0.000 HD
ATOM     95  HE  PRO A   4     -49.511 -72.467  48.734  0.00  0.00    +0.000 HD
ENDBRANCH  86  87
ENDBRANCH  85  86
ENDBRANCH  84  85
ENDBRANCH  81  84
ENDBRANCH  79  81
ENDBRANCH  76  77
BRANCH  76  96
ATOM     96  CB  HIS A   3     -43.718 -71.326  51.619  0.00  0.00    +0.000 C 
BRANCH  96  97
ATOM     97  CG  HIS A   3     -42.503 -70.610  50.980  0.00  0.00    +0.000 C 
BRANCH  97  98
ATOM     98  CD  HIS A   3     -42.237 -69.221  51.507  0.00  0.00    +0.000 C 
ATOM     99  OE1 HIS A   3     -43.162 -68.464  51.812  0.00  0.00    +0.000 OA
ATOM    100  NE2 HIS A   3     -40.956 -68.857  51.589  0.00  0.00    +0.000 N 
ATOM    101 HE21 HIS A   3     -40.707 -67.903  51.920  0.00  0.00    +0.000 HD
ATOM    102 HE22 HIS A   3     -40.207 -69.527  51.322  0.00  0.00    +0.000 HD
ENDBRANCH  97  98
ENDBRANCH  96  97
ENDBRANCH  76  96
ENDBRANCH  74  76
ENDBRANCH  60  72
ENDBRANCH  59  60
ENDBRANCH  57  59
ENDBRANCH  11  54
BRANCH  16 103
ATOM    103  C   UNK A   1     -33.740 -65.578  49.940  0.00  0.00    +0.000 C 
ATOM    104  O   UNK A   1     -32.831 -66.384  50.000  0.00  0.00    +0.000 OA
ATOM    105  N   THR A   8     -34.535 -65.457  48.870  0.00  0.00    +0.000 N 
ATOM    106  H   THR A   8     -35.282 -64.734  48.873  0.00  0.00    +0.000 HD
BRANCH 105 107
ATOM    107  CA  THR A   8     -34.378 -66.323  47.687  0.00  0.00    +0.000 C 
BRANCH 107 108
ATOM    108  CB  THR A   8     -35.534 -66.081  46.703  0.00  0.00    +0.000 C 
ATOM    109  CG2 THR A   8     -35.097 -66.201  45.306  0.00  0.00    +0.000 C 
BRANCH 108 110
ATOM    110  OG1 THR A   8     -36.558 -67.048  46.921  0.00  0.00    +0.000 OA
ATOM    111  HG1 THR A   8     -36.893 -66.968  47.849  0.00  0.00    +0.000 HD
ENDBRANCH 108 110
ENDBRANCH 107 108
BRANCH 107 112
ATOM    112  C   THR A   8     -32.976 -66.231  47.007  0.00  0.00    +0.000 C 
ATOM    113  O   THR A   8     -32.394 -67.249  46.582  0.00  0.00    +0.000 OA
ENDBRANCH 107 112
ENDBRANCH 105 107
ENDBRANCH  16 103
BRANCH  21 114
ATOM    114  CB  THR A   6     -33.166 -60.116  50.466  0.00  0.00    +0.000 C 
ATOM    115  CG2 THR A   6     -31.792 -60.151  51.094  0.00  0.00    +0.000 C 
BRANCH 114 116
ATOM    116  OG1 THR A   6     -33.378 -58.848  49.833  0.00  0.00    +0.000 OA
ATOM    117  HG1 THR A   6     -34.293 -58.817  49.456  0.00  0.00    +0.000 HD
ENDBRANCH 114 116
ENDBRANCH  21 114
BRANCH   1 118
ATOM    118  N   UNK A   1     -37.626 -68.664  44.398  0.00  0.00    +0.000 NA
ATOM    119  H   UNK A   1     -37.589 -68.312  45.376  0.00  0.00    +0.000 HD
ENDBRANCH   1 118
BRANCH  45 120
ATOM    120  C   UNK A   2     -41.004 -66.541  39.712  0.00  0.00    +0.000 C 
BRANCH 120 121
ATOM    121  C   UNK A   2     -40.923 -67.751  38.772  0.00  0.00    +0.000 C 
BRANCH 121 122
ATOM    122  C   UNK A   2     -42.153 -67.906  37.870  0.00  0.00    +0.000 C 
ATOM    123  N   UNK A   2     -42.686 -69.129  37.796  0.00  0.00    +0.000 N 
ATOM    124  H   UNK A   2     -42.281 -69.907  38.354  0.00  0.00    +0.000 HD
ATOM    125  H   UNK A   2     -43.506 -69.302  37.180  0.00  0.00    +0.000 HD
ATOM    126  O   UNK A   2     -42.598 -66.945  37.226  0.00  0.00    +0.000 OA
ENDBRANCH 121 122
ENDBRANCH 120 121
ENDBRANCH  45 120
BRANCH  11 127
ATOM    127  O   UNK A   1     -37.870 -65.013  54.406  0.00  0.00    +0.000 OA
BRANCH 127 128
ATOM    128  C   UNK A   1     -37.831 -63.770  54.480  0.00  0.00    +0.000 C 
BRANCH 128 129
ATOM    129  O   UNK A   1     -37.896 -63.027  53.484  0.00  0.00    +0.000 OA
ATOM    130 MG   UNK A   1     -38.809 -62.671  51.615  0.00  0.00    +0.000 Mg
ENDBRANCH 128 129
BRANCH 128 131
ATOM    131  C   UNK A   1     -37.752 -63.116  55.814  0.00  0.00    +0.000 C 
BRANCH 131 132
ATOM    132  C   UNK A   1     -38.116 -61.643  55.751  0.00  0.00    +0.000 C 
BRANCH 132 133
ATOM    133  C   UNK A   1     -38.798 -61.296  57.058  0.00  0.00    +0.000 C 
ATOM    134  N   HIS A   3     -38.020 -60.832  58.041  0.00  0.00    +0.000 N 
ATOM    135  H   HIS A   3     -37.004 -60.690  57.872  0.00  0.00    +0.000 HD
ATOM    136  O   UNK A   1     -40.007 -61.453  57.182  0.00  0.00    +0.000 OA
BRANCH 134 137
ATOM    137  CA  HIS A   3     -38.587 -60.523  59.351  0.00  0.00    +0.000 C 
BRANCH 137 138
ATOM    138  C   HIS A   3     -38.996 -59.077  59.497  0.00  0.00    +0.000 C 
ATOM    139  O   HIS A   3     -39.551 -58.721  60.545  0.00  0.00    +0.000 OA
ATOM    140  N   PRO A   4     -38.737 -58.271  58.457  0.00  0.00    +0.000 N 
ATOM    141  H   PRO A   4     -38.442 -58.710  57.561  0.00  0.00    +0.000 HD
BRANCH 140 142
ATOM    142  CA  PRO A   4     -38.845 -56.797  58.505  0.00  0.00    +0.000 C 
BRANCH 142 143
ATOM    143  C   PRO A   4     -38.156 -56.251  59.754  0.00  0.00    +0.000 C 
ATOM    144  O   PRO A   4     -38.776 -55.546  60.565  0.00  0.00    +0.000 OA
ENDBRANCH 142 143
BRANCH 142 145
ATOM    145  CB  PRO A   4     -40.305 -56.321  58.442  0.00  0.00    +0.000 C 
BRANCH 145 146
ATOM    146  CG  PRO A   4     -41.106 -56.665  57.179  0.00  0.00    +0.000 C 
ATOM    147  CD2 PRO A   4     -42.595 -56.272  57.356  0.00  0.00    +0.000 C 
ATOM    148  CD1 PRO A   4     -40.499 -55.989  55.932  0.00  0.00    +0.000 C 
ENDBRANCH 145 146
ENDBRANCH 142 145
ENDBRANCH 140 142
ENDBRANCH 137 138
BRANCH 137 149
ATOM    149  CB  HIS A   3     -37.626 -60.900  60.489  0.00  0.00    +0.000 C 
BRANCH 149 150
ATOM    150  O   HIS A   3     -36.548 -59.975  60.540  0.00  0.00    +0.000 OA
ATOM    151  H   HIS A   3     -36.058 -59.993  59.680  0.00  0.00    +0.000 HD
ENDBRANCH 149 150
ENDBRANCH 137 149
ENDBRANCH 134 137
ENDBRANCH 132 133
BRANCH 132 152
ATOM    152  N   UNK A   1     -36.918 -60.827  55.446  0.00  0.00    +0.000 N 
ATOM    153  H   UNK A   1     -35.990 -61.295  55.441  0.00  0.00    +0.000 HD
ATOM    154  C   UNK A   1     -36.970 -59.522  55.177  0.00  0.00    +0.000 C 
ATOM    155  O   UNK A   1     -38.012 -58.875  55.124  0.00  0.00    +0.000 OA
BRANCH 154 156
ATOM    156  C   UNK A   1     -35.655 -58.831  54.900  0.00  0.00    +0.000 C 
BRANCH 156 157
ATOM    157  N   UNK A   1     -34.696 -58.977  55.976  0.00  0.00    +0.000 NA
ATOM    158  H   UNK A   1     -33.773 -59.405  55.759  0.00  0.00    +0.000 HD
ENDBRANCH 156 157
BRANCH 156 159
ATOM    159  C   UNK A   1     -35.101 -59.399  53.604  0.00  0.00    +0.000 C 
BRANCH 159 160
ATOM    160  O   UNK A   1     -36.061 -59.251  52.576  0.00  0.00    +0.000 OA
ATOM    161  H   UNK A   1     -36.267 -58.290  52.454  0.00  0.00    +0.000 HD
ENDBRANCH 159 160
ENDBRANCH 156 159
ENDBRANCH 154 156
ENDBRANCH 132 152
ENDBRANCH 131 132
ENDBRANCH 128 131
ENDBRANCH 127 128
ENDBRANCH  11 127
BRANCH   9 162
ATOM    162  C   UNK A   1     -36.750 -69.231  49.626  0.00  0.00    +0.000 C 
BRANCH 162 163
ATOM    163  C   UNK A   1     -37.458 -70.567  49.857  0.00  0.00    +0.000 C 
BRANCH 163 164
ATOM    164  N   UNK A   1     -36.519 -71.678  49.644  0.00  0.00    +0.000 N 
ATOM    165  H   UNK A   1     -36.369 -72.370  50.405  0.00  0.00    +0.000 HD
ATOM    166  C   UNK A   1     -35.854 -71.817  48.492  0.00  0.00    +0.000 C 
ATOM    167  O   UNK A   1     -36.200 -71.266  47.436  0.00  0.00    +0.000 OA
BRANCH 166 168
ATOM    168  C   UNK A   1     -34.665 -72.767  48.495  0.00  0.00    +0.000 C 
BRANCH 168 169
ATOM    169  C   UNK A   1     -33.340 -71.996  48.776  0.00  0.00    +0.000 C 
ATOM    170  C   UNK A   1     -32.142 -72.971  48.863  0.00  0.00    +0.000 C 
ATOM    171  C   UNK A   1     -33.086 -70.886  47.708  0.00  0.00    +0.000 C 
ENDBRANCH 168 169
BRANCH 168 172
ATOM    172  N   UNK A   1     -34.676 -73.403  47.203  0.00  0.00    +0.000 NA
ATOM    173  H   UNK A   1     -34.524 -72.843  46.340  0.00  0.00    +0.000 HD
ENDBRANCH 168 172
ENDBRANCH 166 168
ENDBRANCH 163 164
BRANCH 163 174
ATOM    174  C   UNK A   1     -38.748 -70.672  49.027  0.00  0.00    +0.000 C 
ATOM    175  O   UNK A   1     -39.557 -69.705  48.948  0.00  0.00    +0.000 OA
ATOM    176  N   HIS A   3     -38.965 -71.839  48.427  0.00  0.00    +0.000 N 
ATOM    177  H   HIS A   3     -38.217 -72.562  48.405  0.00  0.00    +0.000 HD
BRANCH 176 178
ATOM    178  CA  HIS A   3     -40.269 -72.104  47.793  0.00  0.00    +0.000 C 
BRANCH 178 179
ATOM    179  C   HIS A   3     -40.391 -73.568  47.495  0.00  0.00    +0.000 C 
ATOM    180  O   HIS A   3     -39.405 -74.284  47.544  0.00  0.00    +0.000 OA
ENDBRANCH 178 179
BRANCH 178 181
ATOM    181  CB  HIS A   3     -40.441 -71.330  46.455  0.00  0.00    +0.000 C 
BRANCH 181 182
ATOM    182  CG  HIS A   3     -39.608 -71.875  45.335  0.00  0.00    +0.000 A 
ATOM    183  ND1 HIS A   3     -38.224 -71.890  45.374  0.00  0.00    +0.000 NA
ATOM    184  CE1 HIS A   3     -37.756 -72.384  44.239  0.00  0.00    +0.000 A 
ATOM    185  NE2 HIS A   3     -38.783 -72.702  43.471  0.00  0.00    +0.000 NA
ATOM    186  CD2 HIS A   3     -39.957 -72.382  44.127  0.00  0.00    +0.000 A 
ENDBRANCH 181 182
ENDBRANCH 178 181
ENDBRANCH 176 178
ENDBRANCH 163 174
ENDBRANCH 162 163
ENDBRANCH   9 162
BRANCH  41 187
ATOM    187  CB  HIS A   3     -41.062 -62.041  41.626  0.00  0.00    +0.000 C 
BRANCH 187 188
ATOM    188  CG  HIS A   3     -41.867 -62.070  40.357  0.00  0.00    +0.000 C 
ATOM    189  ND2 HIS A   3     -43.060 -62.616  40.411  0.00  0.00    +0.000 N 
ATOM    190 HD21 HIS A   3     -43.432 -62.963  41.318  0.00  0.00    +0.000 HD
ATOM    191 HD22 HIS A   3     -43.632 -62.701  39.547  0.00  0.00    +0.000 HD
ATOM    192  OD1 HIS A   3     -41.388 -61.649  39.319  0.00  0.00    +0.000 OA
ENDBRANCH 187 188
ENDBRANCH  41 187
TORSDOF 63
REMARK  Name = ../refined-set-2016/2iw4/2iw4_pocket.pdb
REMARK  157 active torsions:
REMARK  status: ('A' for Active; 'I' for Inactive)
REMARK    1  A    between atoms: _1  and  _3
REMARK    2  A    between atoms: _14  and  _17
REMARK    3  A    between atoms: _17  and  _18
REMARK    4  A    between atoms: _18  and  _19
REMARK    5  A    between atoms: _26  and  _29
REMARK    6  A    between atoms: _29  and  _30
REMARK    7  A    between atoms: _53  and  _56
REMARK    8  A    between atoms: _56  and  _57
REMARK    9  A    between atoms: _62  and  _63
REMARK   10  A    between atoms: _69  and  _71
REMARK   11  A    between atoms: _71  and  _72
REMARK   12  A    between atoms: _71  and  _74
REMARK   13  A    between atoms: _74  and  _75
REMARK   14  A    between atoms: _78  and  _80
REMARK   15  A    between atoms: _80  and  _81
REMARK   16  A    between atoms: _80  and  _83
REMARK   17  A    between atoms: _86  and  _88
REMARK   18  A    between atoms: _88  and  _89
REMARK   19  A    between atoms: _88  and  _91
REMARK   20  A    between atoms: _91  and  _92
REMARK   21  A    between atoms: _95  and  _97
REMARK   22  A    between atoms: _97  and  _98
REMARK   23  A    between atoms: _97  and  _100
REMARK   24  A    between atoms: _100  and  _101
REMARK   25  A    between atoms: _106  and  _108
REMARK   26  A    between atoms: _108  and  _109
REMARK   27  A    between atoms: _108  and  _111
REMARK   28  A    between atoms: _111  and  _112
REMARK   29  A    between atoms: _112  and  _113
REMARK   30  A    between atoms: _118  and  _120
REMARK   31  A    between atoms: _120  and  _121
REMARK   32  A    between atoms: _120  and  _123
REMARK   33  A    between atoms: _123  and  _124
REMARK   34  A    between atoms: _127  and  _129
REMARK   35  A    between atoms: _129  and  _130
REMARK   36  A    between atoms: _129  and  _132
REMARK   37  A    between atoms: _132  and  _133
REMARK   38  A    between atoms: _137  and  FE_415
REMARK   39  A    between atoms: _138  and  _140
REMARK   40  A    between atoms: _140  and  _141
REMARK   41  A    between atoms: _140  and  _143
REMARK   42  A    between atoms: _143  and  _144
REMARK   43  A    between atoms: _144  and  _145
REMARK   44  A    between atoms: _150  and  _152
REMARK   45  A    between atoms: _152  and  _153
REMARK   46  A    between atoms: _152  and  _155
REMARK   47  A    between atoms: _155  and  _156
REMARK   48  A    between atoms: _156  and  _157
REMARK   49  A    between atoms: _157  and  _158
REMARK   50  A    between atoms: _167  and  _169
REMARK   51  A    between atoms: _169  and  _170
REMARK   52  A    between atoms: _169  and  _172
REMARK   53  A    between atoms: _175  and  _177
REMARK   54  A    between atoms: _177  and  _178
REMARK   55  A    between atoms: _180  and  _182
REMARK   56  A    between atoms: _182  and  _183
REMARK   57  A    between atoms: _182  and  _185
REMARK   58  A    between atoms: _187  and  _189
REMARK   59  A    between atoms: _189  and  _190
REMARK   60  A    between atoms: _189  and  _192
REMARK   61  A    between atoms: _192  and  _193
REMARK   62  A    between atoms: _196  and  _198
REMARK   63  A    between atoms: _198  and  _199
REMARK   64  A    between atoms: _202  and  _204
REMARK   65  A    between atoms: _204  and  _205
REMARK   66  A    between atoms: _208  and  _210
REMARK   67  A    between atoms: _210  and  _211
REMARK   68  A    between atoms: _210  and  _213
REMARK   69  A    between atoms: _213  and  _214
REMARK   70  A    between atoms: _216  and  _218
REMARK   71  A    between atoms: _218  and  _219
REMARK   72  A    between atoms: _218  and  _221
REMARK   73  A    between atoms: _221  and  _222
REMARK   74  A    between atoms: _222  and  _223
REMARK   75  A    between atoms: _222  and  _224
REMARK   76  A    between atoms: _224  and  FE_415
REMARK   77  A    between atoms: _225  and  _227
REMARK   78  A    between atoms: _227  and  _228
REMARK   79  A    between atoms: _227  and  _230
REMARK   80  A    between atoms: _230  and  _231
REMARK   81  A    between atoms: _233  and  _235
REMARK   82  A    between atoms: _235  and  _236
REMARK   83  A    between atoms: _235  and  _238
REMARK   84  A    between atoms: _238  and  _239
REMARK   85  A    between atoms: _242  and  _244
REMARK   86  A    between atoms: _244  and  _245
REMARK   87  A    between atoms: _244  and  _247
REMARK   88  A    between atoms: _247  and  _248
REMARK   89  A    between atoms: _250  and  _252
REMARK   90  A    between atoms: _252  and  _253
REMARK   91  A    between atoms: _252  and  _255
REMARK   92  A    between atoms: _255  and  _256
REMARK   93  A    between atoms: _259  and  _261
REMARK   94  A    between atoms: _261  and  _262
REMARK   95  A    between atoms: _261  and  _264
REMARK   96  A    between atoms: _264  and  _265
REMARK   97  A    between atoms: _268  and  _270
REMARK   98  A    between atoms: _270  and  _271
REMARK   99  A    between atoms: _274  and  _276
REMARK  100  A    between atoms: _276  and  _277
REMARK  101  A    between atoms: _276  and  _279
REMARK  102  A    between atoms: _279  and  _280
REMARK  103  A    between atoms: _280  and  _281
REMARK  104  A    between atoms: _281  and  _282
REMARK  105  A    between atoms: _282  and  _283
REMARK  106  A    between atoms: _287  and  _289
REMARK  107  A    between atoms: _289  and  _290
REMARK  108  A    between atoms: _289  and  _292
REMARK  109  A    between atoms: _292  and  _293
REMARK  110  A    between atoms: _299  and  _301
REMARK  111  A    between atoms: _301  and  _302
REMARK  112  A    between atoms: _301  and  _304
REMARK  113  A    between atoms: _304  and  _305
REMARK  114  A    between atoms: _308  and  _310
REMARK  115  A    between atoms: _310  and  _311
REMARK  116  A    between atoms: _310  and  _313
REMARK  117  A    between atoms: _313  and  _314
REMARK  118  A    between atoms: _314  and  _315
REMARK  119  A    between atoms: _320  and  _322
REMARK  120  A    between atoms: _322  and  _323
REMARK  121  A    between atoms: _322  and  _325
REMARK  122  A    between atoms: _328  and  _330
REMARK  123  A    between atoms: _330  and  _331
REMARK  124  A    between atoms: _330  and  _333
REMARK  125  A    between atoms: _333  and  _334
REMARK  126  A    between atoms: _336  and  _338
REMARK  127  A    between atoms: _338  and  _339
REMARK  128  A    between atoms: _338  and  _341
REMARK  129  A    between atoms: _341  and  _342
REMARK  130  A    between atoms: _342  and  _343
REMARK  131  A    between atoms: _343  and  _344
REMARK  132  A    between atoms: _353  and  _355
REMARK  133  A    between atoms: _355  and  _356
REMARK  134  A    between atoms: _355  and  _358
REMARK  135  A    between atoms: _358  and  _359
REMARK  136  A    between atoms: _359  and  _360
REMARK  137  A    between atoms: _360  and  _361
REMARK  138  A    between atoms: _361  and  _362
REMARK  139  A    between atoms: _366  and  _368
REMARK  140  A    between atoms: _368  and  _369
REMARK  141  A    between atoms: _368  and  _371
REMARK  142  A    between atoms: _371  and  _372
REMARK  143  A    between atoms: _372  and  _373
REMARK  144  A    between atoms: _373  and  _374
REMARK  145  A    between atoms: _374  and  _375
REMARK  146  A    between atoms: _379  and  _381
REMARK  147  A    between atoms: _381  and  _382
REMARK  148  A    between atoms: _381  and  _384
REMARK  149  A    between atoms: _384  and  _385
REMARK  150  A    between atoms: _385  and  _386
REMARK  151  A    between atoms: _391  and  _393
REMARK  152  A    between atoms: _393  and  _394
REMARK  153  A    between atoms: _393  and  _396
REMARK  154  A    between atoms: _399  and  _401
REMARK  155  A    between atoms: _401  and  _402
REMARK  156  A    between atoms: _401  and  _404
REMARK  157  A    between atoms: _408  and  _409
REMARK                            x       y       z     vdW  Elec       q    Type
REMARK                         _______ _______ _______ _____ _____    ______ ____
ROOT
ATOM      1  CB  GLN A   1     -43.615 -70.198  43.187  0.00  0.00    +0.035 C 
ENDROOT
BRANCH   1   2
ATOM      2  CA  GLN A   1     -43.552 -70.238  41.664  0.00  0.00    +0.134 C 
BRANCH   2   3
ATOM      3  N   GLN A   1     -44.443 -71.266  41.159  0.00  0.00    -0.239 NA
ATOM      4  H   GLN A   1     -44.536 -72.168  41.668  0.00  0.00    +0.142 HD
ENDBRANCH   2   3
BRANCH   2   5
ATOM      5  C   GLN A   1     -42.098 -70.484  41.238  0.00  0.00    +0.224 C 
ATOM      6  O   GLN A   1     -41.193 -69.697  41.557  0.00  0.00    -0.287 OA
ENDBRANCH   2   5
ENDBRANCH   1   2
BRANCH   1   7
ATOM      7  CG  GLN A   1     -44.899 -69.596  43.752  0.00  0.00    +0.087 C 
BRANCH   7   8
ATOM      8  CD  GLN A   1     -44.856 -69.620  45.259  0.00  0.00    +0.219 C 
ATOM      9  NE2 GLN A   1     -46.019 -69.448  45.880  0.00  0.00    -0.329 N 
ATOM     10 HE21 GLN A   1     -46.058 -69.442  46.919  0.00  0.00    +0.145 HD
ATOM     11 HE22 GLN A   1     -46.890 -69.320  45.326  0.00  0.00    +0.145 HD
ATOM     12  OE1 GLN A   1     -43.768 -69.780  45.867  0.00  0.00    -0.275 OA
ENDBRANCH   7   8
ENDBRANCH   1   7
TORSDOF 5
REMARK  Name = ../refined-set-2016/2iw4/2iw4_pocket.pdb
REMARK  157 active torsions:
REMARK  status: ('A' for Active; 'I' for Inactive)
REMARK    1  A    between atoms: _1  and  _3
REMARK    2  A    between atoms: _14  and  _17
REMARK    3  A    between atoms: _17  and  _18
REMARK    4  A    between atoms: _18  and  _19
REMARK    5  A    between atoms: _26  and  _29
REMARK    6  A    between atoms: _29  and  _30
REMARK    7  A    between atoms: _53  and  _56
REMARK    8  A    between atoms: _56  and  _57
REMARK    9  A    between atoms: _62  and  _63
REMARK   10  A    between atoms: _69  and  _71
REMARK   11  A    between atoms: _71  and  _72
REMARK   12  A    between atoms: _71  and  _74
REMARK   13  A    between atoms: _74  and  _75
REMARK   14  A    between atoms: _78  and  _80
REMARK   15  A    between atoms: _80  and  _81
REMARK   16  A    between atoms: _80  and  _83
REMARK   17  A    between atoms: _86  and  _88
REMARK   18  A    between atoms: _88  and  _89
REMARK   19  A    between atoms: _88  and  _91
REMARK   20  A    between atoms: _91  and  _92
REMARK   21  A    between atoms: _95  and  _97
REMARK   22  A    between atoms: _97  and  _98
REMARK   23  A    between atoms: _97  and  _100
REMARK   24  A    between atoms: _100  and  _101
REMARK   25  A    between atoms: _106  and  _108
REMARK   26  A    between atoms: _108  and  _109
REMARK   27  A    between atoms: _108  and  _111
REMARK   28  A    between atoms: _111  and  _112
REMARK   29  A    between atoms: _112  and  _113
REMARK   30  A    between atoms: _118  and  _120
REMARK   31  A    between atoms: _120  and  _121
REMARK   32  A    between atoms: _120  and  _123
REMARK   33  A    between atoms: _123  and  _124
REMARK   34  A    between atoms: _127  and  _129
REMARK   35  A    between atoms: _129  and  _130
REMARK   36  A    between atoms: _129  and  _132
REMARK   37  A    between atoms: _132  and  _133
REMARK   38  A    between atoms: _137  and  FE_415
REMARK   39  A    between atoms: _138  and  _140
REMARK   40  A    between atoms: _140  and  _141
REMARK   41  A    between atoms: _140  and  _143
REMARK   42  A    between atoms: _143  and  _144
REMARK   43  A    between atoms: _144  and  _145
REMARK   44  A    between atoms: _150  and  _152
REMARK   45  A    between atoms: _152  and  _153
REMARK   46  A    between atoms: _152  and  _155
REMARK   47  A    between atoms: _155  and  _156
REMARK   48  A    between atoms: _156  and  _157
REMARK   49  A    between atoms: _157  and  _158
REMARK   50  A    between atoms: _167  and  _169
REMARK   51  A    between atoms: _169  and  _170
REMARK   52  A    between atoms: _169  and  _172
REMARK   53  A    between atoms: _175  and  _177
REMARK   54  A    between atoms: _177  and  _178
REMARK   55  A    between atoms: _180  and  _182
REMARK   56  A    between atoms: _182  and  _183
REMARK   57  A    between atoms: _182  and  _185
REMARK   58  A    between atoms: _187  and  _189
REMARK   59  A    between atoms: _189  and  _190
REMARK   60  A    between atoms: _189  and  _192
REMARK   61  A    between atoms: _192  and  _193
REMARK   62  A    between atoms: _196  and  _198
REMARK   63  A    between atoms: _198  and  _199
REMARK   64  A    between atoms: _202  and  _204
REMARK   65  A    between atoms: _204  and  _205
REMARK   66  A    between atoms: _208  and  _210
REMARK   67  A    between atoms: _210  and  _211
REMARK   68  A    between atoms: _210  and  _213
REMARK   69  A    between atoms: _213  and  _214
REMARK   70  A    between atoms: _216  and  _218
REMARK   71  A    between atoms: _218  and  _219
REMARK   72  A    between atoms: _218  and  _221
REMARK   73  A    between atoms: _221  and  _222
REMARK   74  A    between atoms: _222  and  _223
REMARK   75  A    between atoms: _222  and  _224
REMARK   76  A    between atoms: _224  and  FE_415
REMARK   77  A    between atoms: _225  and  _227
REMARK   78  A    between atoms: _227  and  _228
REMARK   79  A    between atoms: _227  and  _230
REMARK   80  A    between atoms: _230  and  _231
REMARK   81  A    between atoms: _233  and  _235
REMARK   82  A    between atoms: _235  and  _236
REMARK   83  A    between atoms: _235  and  _238
REMARK   84  A    between atoms: _238  and  _239
REMARK   85  A    between atoms: _242  and  _244
REMARK   86  A    between atoms: _244  and  _245
REMARK   87  A    between atoms: _244  and  _247
REMARK   88  A    between atoms: _247  and  _248
REMARK   89  A    between atoms: _250  and  _252
REMARK   90  A    between atoms: _252  and  _253
REMARK   91  A    between atoms: _252  and  _255
REMARK   92  A    between atoms: _255  and  _256
REMARK   93  A    between atoms: _259  and  _261
REMARK   94  A    between atoms: _261  and  _262
REMARK   95  A    between atoms: _261  and  _264
REMARK   96  A    between atoms: _264  and  _265
REMARK   97  A    between atoms: _268  and  _270
REMARK   98  A    between atoms: _270  and  _271
REMARK   99  A    between atoms: _274  and  _276
REMARK  100  A    between atoms: _276  and  _277
REMARK  101  A    between atoms: _276  and  _279
REMARK  102  A    between atoms: _279  and  _280
REMARK  103  A    between atoms: _280  and  _281
REMARK  104  A    between atoms: _281  and  _282
REMARK  105  A    between atoms: _282  and  _283
REMARK  106  A    between atoms: _287  and  _289
REMARK  107  A    between atoms: _289  and  _290
REMARK  108  A    between atoms: _289  and  _292
REMARK  109  A    between atoms: _292  and  _293
REMARK  110  A    between atoms: _299  and  _301
REMARK  111  A    between atoms: _301  and  _302
REMARK  112  A    between atoms: _301  and  _304
REMARK  113  A    between atoms: _304  and  _305
REMARK  114  A    between atoms: _308  and  _310
REMARK  115  A    between atoms: _310  and  _311
REMARK  116  A    between atoms: _310  and  _313
REMARK  117  A    between atoms: _313  and  _314
REMARK  118  A    between atoms: _314  and  _315
REMARK  119  A    between atoms: _320  and  _322
REMARK  120  A    between atoms: _322  and  _323
REMARK  121  A    between atoms: _322  and  _325
REMARK  122  A    between atoms: _328  and  _330
REMARK  123  A    between atoms: _330  and  _331
REMARK  124  A    between atoms: _330  and  _333
REMARK  125  A    between atoms: _333  and  _334
REMARK  126  A    between atoms: _336  and  _338
REMARK  127  A    between atoms: _338  and  _339
REMARK  128  A    between atoms: _338  and  _341
REMARK  129  A    between atoms: _341  and  _342
REMARK  130  A    between atoms: _342  and  _343
REMARK  131  A    between atoms: _343  and  _344
REMARK  132  A    between atoms: _353  and  _355
REMARK  133  A    between atoms: _355  and  _356
REMARK  134  A    between atoms: _355  and  _358
REMARK  135  A    between atoms: _358  and  _359
REMARK  136  A    between atoms: _359  and  _360
REMARK  137  A    between atoms: _360  and  _361
REMARK  138  A    between atoms: _361  and  _362
REMARK  139  A    between atoms: _366  and  _368
REMARK  140  A    between atoms: _368  and  _369
REMARK  141  A    between atoms: _368  and  _371
REMARK  142  A    between atoms: _371  and  _372
REMARK  143  A    between atoms: _372  and  _373
REMARK  144  A    between atoms: _373  and  _374
REMARK  145  A    between atoms: _374  and  _375
REMARK  146  A    between atoms: _379  and  _381
REMARK  147  A    between atoms: _381  and  _382
REMARK  148  A    between atoms: _381  and  _384
REMARK  149  A    between atoms: _384  and  _385
REMARK  150  A    between atoms: _385  and  _386
REMARK  151  A    between atoms: _391  and  _393
REMARK  152  A    between atoms: _393  and  _394
REMARK  153  A    between atoms: _393  and  _396
REMARK  154  A    between atoms: _399  and  _401
REMARK  155  A    between atoms: _401  and  _402
REMARK  156  A    between atoms: _401  and  _404
REMARK  157  A    between atoms: _408  and  _409
REMARK                            x       y       z     vdW  Elec       q    Type
REMARK                         _______ _______ _______ _____ _____    ______ ____
ROOT
ATOM      1  CA  CYS A   3     -36.369 -66.978  57.152  0.00  0.00    +0.160 C 
ENDROOT
BRANCH   1   3
ATOM      2  C   GLY A   2     -38.259 -66.327  58.549  0.00  0.00    +0.243 C 
ATOM      3  N   CYS A   3     -37.239 -67.161  58.324  0.00  0.00    -0.296 N 
ATOM      4  H   CYS A   3     -37.059 -67.945  58.983  0.00  0.00    +0.150 HD
ATOM      5  O   GLY A   2     -38.582 -65.448  57.745  0.00  0.00    -0.273 OA
BRANCH   2   6
ATOM      6  CA  GLY A   2     -39.047 -66.482  59.848  0.00  0.00    +0.176 C 
BRANCH   6   8
ATOM      7  C   VAL A   1     -39.528 -68.839  60.132  0.00  0.00    +0.238 C 
ATOM      8  N   GLY A   2     -38.920 -67.738  60.567  0.00  0.00    -0.296 N 
ATOM      9  H   GLY A   2     -38.346 -67.777  61.433  0.00  0.00    +0.150 HD
ATOM     10  O   VAL A   1     -40.166 -68.876  59.055  0.00  0.00    -0.274 OA
BRANCH   7  11
ATOM     11  CA  VAL A   1     -39.417 -70.065  61.031  0.00  0.00    +0.145 C 
BRANCH  11  12
ATOM     12  CB  VAL A   1     -37.941 -70.492  61.178  0.00  0.00    +0.025 C 
ATOM     13  CG2 VAL A   1     -37.789 -71.540  62.290  0.00  0.00    +0.002 C 
ATOM     14  CG1 VAL A   1     -37.420 -71.005  59.847  0.00  0.00    +0.002 C 
ENDBRANCH  11  12
BRANCH  11  15
ATOM     15  N   VAL A   1     -40.215 -71.144  60.428  0.00  0.00    -0.238 NA
ATOM     16  H   VAL A   1     -39.837 -71.640  59.596  0.00  0.00    +0.142 HD
ENDBRANCH  11  15
ENDBRANCH   7  11
ENDBRANCH   6   8
ENDBRANCH   2   6
ENDBRANCH   1   3
BRANCH   1  17
ATOM     17  C   CYS A   3     -35.735 -68.322  56.762  0.00  0.00    +0.242 C 
ATOM     18  O   CYS A   3     -35.368 -69.082  57.641  0.00  0.00    -0.273 OA
ATOM     19  N   THR A   4     -35.577 -68.600  55.461  0.00  0.00    -0.295 N 
ATOM     20  H   THR A   4     -35.928 -67.927  54.750  0.00  0.00    +0.150 HD
BRANCH  19  21
ATOM     21  CA  THR A   4     -34.918 -69.835  55.018  0.00  0.00    +0.176 C 
BRANCH  21  22
ATOM     22  C   THR A   4     -33.477 -69.891  55.527  0.00  0.00    +0.243 C 
ATOM     23  O   THR A   4     -32.980 -70.961  55.905  0.00  0.00    -0.273 OA
ATOM     24  N   ALA A   5     -32.830 -68.729  55.563  0.00  0.00    -0.298 N 
ATOM     25  H   ALA A   5     -33.341 -67.863  55.298  0.00  0.00    +0.150 HD
BRANCH  24  26
ATOM     26  CA  ALA A   5     -31.429 -68.625  55.961  0.00  0.00    +0.137 C 
ATOM     27  CB  ALA A   5     -30.920 -67.213  55.721  0.00  0.00    +0.030 C 
BRANCH  26  28
ATOM     28  C   ALA A   5     -31.212 -69.024  57.414  0.00  0.00    +0.227 C 
ATOM     29  O   ALA A   5     -30.117 -69.448  57.780  0.00  0.00    -0.286 OA
ENDBRANCH  26  28
ENDBRANCH  24  26
ENDBRANCH  21  22
BRANCH  21  30
ATOM     30  CB  THR A   4     -34.845 -69.943  53.481  0.00  0.00    +0.137 C 
ATOM     31  CG2 THR A   4     -34.230 -71.295  53.023  0.00  0.00    +0.034 C 
BRANCH  30  32
ATOM     32  OG1 THR A   4     -36.156 -69.847  52.934  0.00  0.00    -0.382 OA
ATOM     33  HG1 THR A   4     -36.554 -68.976  53.185  0.00  0.00    +0.210 HD
ENDBRANCH  30  32
ENDBRANCH  21  30
ENDBRANCH  19  21
ENDBRANCH   1  17
BRANCH   1  34
ATOM     34  CB  CYS A   3     -35.266 -65.966  57.486  0.00  0.00    +0.098 C 
ATOM     35  SG  CYS A   3     -34.298 -65.559  56.072  0.00  0.00    -0.080 S 
ENDBRANCH   1  34
TORSDOF 14
REMARK  Name = ../refined-set-2016/2iw4/2iw4_pocket.pdb
REMARK  157 active torsions:
REMARK  status: ('A' for Active; 'I' for Inactive)
REMARK    1  A    between atoms: _1  and  _3
REMARK    2  A    between atoms: _14  and  _17
REMARK    3  A    between atoms: _17  and  _18
REMARK    4  A    between atoms: _18  and  _19
REMARK    5  A    between atoms: _26  and  _29
REMARK    6  A    between atoms: _29  and  _30
REMARK    7  A    between atoms: _53  and  _56
REMARK    8  A    between atoms: _56  and  _57
REMARK    9  A    between atoms: _62  and  _63
REMARK   10  A    between atoms: _69  and  _71
REMARK   11  A    between atoms: _71  and  _72
REMARK   12  A    between atoms: _71  and  _74
REMARK   13  A    between atoms: _74  and  _75
REMARK   14  A    between atoms: _78  and  _80
REMARK   15  A    between atoms: _80  and  _81
REMARK   16  A    between atoms: _80  and  _83
REMARK   17  A    between atoms: _86  and  _88
REMARK   18  A    between atoms: _88  and  _89
REMARK   19  A    between atoms: _88  and  _91
REMARK   20  A    between atoms: _91  and  _92
REMARK   21  A    between atoms: _95  and  _97
REMARK   22  A    between atoms: _97  and  _98
REMARK   23  A    between atoms: _97  and  _100
REMARK   24  A    between atoms: _100  and  _101
REMARK   25  A    between atoms: _106  and  _108
REMARK   26  A    between atoms: _108  and  _109
REMARK   27  A    between atoms: _108  and  _111
REMARK   28  A    between atoms: _111  and  _112
REMARK   29  A    between atoms: _112  and  _113
REMARK   30  A    between atoms: _118  and  _120
REMARK   31  A    between atoms: _120  and  _121
REMARK   32  A    between atoms: _120  and  _123
REMARK   33  A    between atoms: _123  and  _124
REMARK   34  A    between atoms: _127  and  _129
REMARK   35  A    between atoms: _129  and  _130
REMARK   36  A    between atoms: _129  and  _132
REMARK   37  A    between atoms: _132  and  _133
REMARK   38  A    between atoms: _137  and  FE_415
REMARK   39  A    between atoms: _138  and  _140
REMARK   40  A    between atoms: _140  and  _141
REMARK   41  A    between atoms: _140  and  _143
REMARK   42  A    between atoms: _143  and  _144
REMARK   43  A    between atoms: _144  and  _145
REMARK   44  A    between atoms: _150  and  _152
REMARK   45  A    between atoms: _152  and  _153
REMARK   46  A    between atoms: _152  and  _155
REMARK   47  A    between atoms: _155  and  _156
REMARK   48  A    between atoms: _156  and  _157
REMARK   49  A    between atoms: _157  and  _158
REMARK   50  A    between atoms: _167  and  _169
REMARK   51  A    between atoms: _169  and  _170
REMARK   52  A    between atoms: _169  and  _172
REMARK   53  A    between atoms: _175  and  _177
REMARK   54  A    between atoms: _177  and  _178
REMARK   55  A    between atoms: _180  and  _182
REMARK   56  A    between atoms: _182  and  _183
REMARK   57  A    between atoms: _182  and  _185
REMARK   58  A    between atoms: _187  and  _189
REMARK   59  A    between atoms: _189  and  _190
REMARK   60  A    between atoms: _189  and  _192
REMARK   61  A    between atoms: _192  and  _193
REMARK   62  A    between atoms: _196  and  _198
REMARK   63  A    between atoms: _198  and  _199
REMARK   64  A    between atoms: _202  and  _204
REMARK   65  A    between atoms: _204  and  _205
REMARK   66  A    between atoms: _208  and  _210
REMARK   67  A    between atoms: _210  and  _211
REMARK   68  A    between atoms: _210  and  _213
REMARK   69  A    between atoms: _213  and  _214
REMARK   70  A    between atoms: _216  and  _218
REMARK   71  A    between atoms: _218  and  _219
REMARK   72  A    between atoms: _218  and  _221
REMARK   73  A    between atoms: _221  and  _222
REMARK   74  A    between atoms: _222  and  _223
REMARK   75  A    between atoms: _222  and  _224
REMARK   76  A    between atoms: _224  and  FE_415
REMARK   77  A    between atoms: _225  and  _227
REMARK   78  A    between atoms: _227  and  _228
REMARK   79  A    between atoms: _227  and  _230
REMARK   80  A    between atoms: _230  and  _231
REMARK   81  A    between atoms: _233  and  _235
REMARK   82  A    between atoms: _235  and  _236
REMARK   83  A    between atoms: _235  and  _238
REMARK   84  A    between atoms: _238  and  _239
REMARK   85  A    between atoms: _242  and  _244
REMARK   86  A    between atoms: _244  and  _245
REMARK   87  A    between atoms: _244  and  _247
REMARK   88  A    between atoms: _247  and  _248
REMARK   89  A    between atoms: _250  and  _252
REMARK   90  A    between atoms: _252  and  _253
REMARK   91  A    between atoms: _252  and  _255
REMARK   92  A    between atoms: _255  and  _256
REMARK   93  A    between atoms: _259  and  _261
REMARK   94  A    between atoms: _261  and  _262
REMARK   95  A    between atoms: _261  and  _264
REMARK   96  A    between atoms: _264  and  _265
REMARK   97  A    between atoms: _268  and  _270
REMARK   98  A    between atoms: _270  and  _271
REMARK   99  A    between atoms: _274  and  _276
REMARK  100  A    between atoms: _276  and  _277
REMARK  101  A    between atoms: _276  and  _279
REMARK  102  A    between atoms: _279  and  _280
REMARK  103  A    between atoms: _280  and  _281
REMARK  104  A    between atoms: _281  and  _282
REMARK  105  A    between atoms: _282  and  _283
REMARK  106  A    between atoms: _287  and  _289
REMARK  107  A    between atoms: _289  and  _290
REMARK  108  A    between atoms: _289  and  _292
REMARK  109  A    between atoms: _292  and  _293
REMARK  110  A    between atoms: _299  and  _301
REMARK  111  A    between atoms: _301  and  _302
REMARK  112  A    between atoms: _301  and  _304
REMARK  113  A    between atoms: _304  and  _305
REMARK  114  A    between atoms: _308  and  _310
REMARK  115  A    between atoms: _310  and  _311
REMARK  116  A    between atoms: _310  and  _313
REMARK  117  A    between atoms: _313  and  _314
REMARK  118  A    between atoms: _314  and  _315
REMARK  119  A    between atoms: _320  and  _322
REMARK  120  A    between atoms: _322  and  _323
REMARK  121  A    between atoms: _322  and  _325
REMARK  122  A    between atoms: _328  and  _330
REMARK  123  A    between atoms: _330  and  _331
REMARK  124  A    between atoms: _330  and  _333
REMARK  125  A    between atoms: _333  and  _334
REMARK  126  A    between atoms: _336  and  _338
REMARK  127  A    between atoms: _338  and  _339
REMARK  128  A    between atoms: _338  and  _341
REMARK  129  A    between atoms: _341  and  _342
REMARK  130  A    between atoms: _342  and  _343
REMARK  131  A    between atoms: _343  and  _344
REMARK  132  A    between atoms: _353  and  _355
REMARK  133  A    between atoms: _355  and  _356
REMARK  134  A    between atoms: _355  and  _358
REMARK  135  A    between atoms: _358  and  _359
REMARK  136  A    between atoms: _359  and  _360
REMARK  137  A    between atoms: _360  and  _361
REMARK  138  A    between atoms: _361  and  _362
REMARK  139  A    between atoms: _366  and  _368
REMARK  140  A    between atoms: _368  and  _369
REMARK  141  A    between atoms: _368  and  _371
REMARK  142  A    between atoms: _371  and  _372
REMARK  143  A    between atoms: _372  and  _373
REMARK  144  A    between atoms: _373  and  _374
REMARK  145  A    between atoms: _374  and  _375
REMARK  146  A    between atoms: _379  and  _381
REMARK  147  A    between atoms: _381  and  _382
REMARK  148  A    between atoms: _381  and  _384
REMARK  149  A    between atoms: _384  and  _385
REMARK  150  A    between atoms: _385  and  _386
REMARK  151  A    between atoms: _391  and  _393
REMARK  152  A    between atoms: _393  and  _394
REMARK  153  A    between atoms: _393  and  _396
REMARK  154  A    between atoms: _399  and  _401
REMARK  155  A    between atoms: _401  and  _402
REMARK  156  A    between atoms: _401  and  _404
REMARK  157  A    between atoms: _408  and  _409
REMARK                            x       y       z     vdW  Elec       q    Type
REMARK                         _______ _______ _______ _____ _____    ______ ____
ROOT
ATOM      1  CA  ALA A   1     -32.194 -62.480  54.309  0.00  0.00    +0.133 C 
ATOM      2  CB  ALA A   1     -31.798 -63.911  53.968  0.00  0.00    +0.027 C 
ENDROOT
BRANCH   1   3
ATOM      3  N   ALA A   1     -30.996 -61.670  54.534  0.00  0.00    -0.239 NA
ATOM      4  H   ALA A   1     -30.062 -62.124  54.479  0.00  0.00    +0.142 HD
ENDBRANCH   1   3
BRANCH   1   5
ATOM      5  C   ALA A   1     -33.141 -62.431  55.526  0.00  0.00    +0.224 C 
ATOM      6  O   ALA A   1     -34.339 -62.189  55.380  0.00  0.00    -0.287 OA
ENDBRANCH   1   5
TORSDOF 2
REMARK  Name = ../refined-set-2016/2iw4/2iw4_pocket.pdb
REMARK  157 active torsions:
REMARK  status: ('A' for Active; 'I' for Inactive)
REMARK    1  A    between atoms: _1  and  _3
REMARK    2  A    between atoms: _14  and  _17
REMARK    3  A    between atoms: _17  and  _18
REMARK    4  A    between atoms: _18  and  _19
REMARK    5  A    between atoms: _26  and  _29
REMARK    6  A    between atoms: _29  and  _30
REMARK    7  A    between atoms: _53  and  _56
REMARK    8  A    between atoms: _56  and  _57
REMARK    9  A    between atoms: _62  and  _63
REMARK   10  A    between atoms: _69  and  _71
REMARK   11  A    between atoms: _71  and  _72
REMARK   12  A    between atoms: _71  and  _74
REMARK   13  A    between atoms: _74  and  _75
REMARK   14  A    between atoms: _78  and  _80
REMARK   15  A    between atoms: _80  and  _81
REMARK   16  A    between atoms: _80  and  _83
REMARK   17  A    between atoms: _86  and  _88
REMARK   18  A    between atoms: _88  and  _89
REMARK   19  A    between atoms: _88  and  _91
REMARK   20  A    between atoms: _91  and  _92
REMARK   21  A    between atoms: _95  and  _97
REMARK   22  A    between atoms: _97  and  _98
REMARK   23  A    between atoms: _97  and  _100
REMARK   24  A    between atoms: _100  and  _101
REMARK   25  A    between atoms: _106  and  _108
REMARK   26  A    between atoms: _108  and  _109
REMARK   27  A    between atoms: _108  and  _111
REMARK   28  A    between atoms: _111  and  _112
REMARK   29  A    between atoms: _112  and  _113
REMARK   30  A    between atoms: _118  and  _120
REMARK   31  A    between atoms: _120  and  _121
REMARK   32  A    between atoms: _120  and  _123
REMARK   33  A    between atoms: _123  and  _124
REMARK   34  A    between atoms: _127  and  _129
REMARK   35  A    between atoms: _129  and  _130
REMARK   36  A    between atoms: _129  and  _132
REMARK   37  A    between atoms: _132  and  _133
REMARK   38  A    between atoms: _137  and  FE_415
REMARK   39  A    between atoms: _138  and  _140
REMARK   40  A    between atoms: _140  and  _141
REMARK   41  A    between atoms: _140  and  _143
REMARK   42  A    between atoms: _143  and  _144
REMARK   43  A    between atoms: _144  and  _145
REMARK   44  A    between atoms: _150  and  _152
REMARK   45  A    between atoms: _152  and  _153
REMARK   46  A    between atoms: _152  and  _155
REMARK   47  A    between atoms: _155  and  _156
REMARK   48  A    between atoms: _156  and  _157
REMARK   49  A    between atoms: _157  and  _158
REMARK   50  A    between atoms: _167  and  _169
REMARK   51  A    between atoms: _169  and  _170
REMARK   52  A    between atoms: _169  and  _172
REMARK   53  A    between atoms: _175  and  _177
REMARK   54  A    between atoms: _177  and  _178
REMARK   55  A    between atoms: _180  and  _182
REMARK   56  A    between atoms: _182  and  _183
REMARK   57  A    between atoms: _182  and  _185
REMARK   58  A    between atoms: _187  and  _189
REMARK   59  A    between atoms: _189  and  _190
REMARK   60  A    between atoms: _189  and  _192
REMARK   61  A    between atoms: _192  and  _193
REMARK   62  A    between atoms: _196  and  _198
REMARK   63  A    between atoms: _198  and  _199
REMARK   64  A    between atoms: _202  and  _204
REMARK   65  A    between atoms: _204  and  _205
REMARK   66  A    between atoms: _208  and  _210
REMARK   67  A    between atoms: _210  and  _211
REMARK   68  A    between atoms: _210  and  _213
REMARK   69  A    between atoms: _213  and  _214
REMARK   70  A    between atoms: _216  and  _218
REMARK   71  A    between atoms: _218  and  _219
REMARK   72  A    between atoms: _218  and  _221
REMARK   73  A    between atoms: _221  and  _222
REMARK   74  A    between atoms: _222  and  _223
REMARK   75  A    between atoms: _222  and  _224
REMARK   76  A    between atoms: _224  and  FE_415
REMARK   77  A    between atoms: _225  and  _227
REMARK   78  A    between atoms: _227  and  _228
REMARK   79  A    between atoms: _227  and  _230
REMARK   80  A    between atoms: _230  and  _231
REMARK   81  A    between atoms: _233  and  _235
REMARK   82  A    between atoms: _235  and  _236
REMARK   83  A    between atoms: _235  and  _238
REMARK   84  A    between atoms: _238  and  _239
REMARK   85  A    between atoms: _242  and  _244
REMARK   86  A    between atoms: _244  and  _245
REMARK   87  A    between atoms: _244  and  _247
REMARK   88  A    between atoms: _247  and  _248
REMARK   89  A    between atoms: _250  and  _252
REMARK   90  A    between atoms: _252  and  _253
REMARK   91  A    between atoms: _252  and  _255
REMARK   92  A    between atoms: _255  and  _256
REMARK   93  A    between atoms: _259  and  _261
REMARK   94  A    between atoms: _261  and  _262
REMARK   95  A    between atoms: _261  and  _264
REMARK   96  A    between atoms: _264  and  _265
REMARK   97  A    between atoms: _268  and  _270
REMARK   98  A    between atoms: _270  and  _271
REMARK   99  A    between atoms: _274  and  _276
REMARK  100  A    between atoms: _276  and  _277
REMARK  101  A    between atoms: _276  and  _279
REMARK  102  A    between atoms: _279  and  _280
REMARK  103  A    between atoms: _280  and  _281
REMARK  104  A    between atoms: _281  and  _282
REMARK  105  A    between atoms: _282  and  _283
REMARK  106  A    between atoms: _287  and  _289
REMARK  107  A    between atoms: _289  and  _290
REMARK  108  A    between atoms: _289  and  _292
REMARK  109  A    between atoms: _292  and  _293
REMARK  110  A    between atoms: _299  and  _301
REMARK  111  A    between atoms: _301  and  _302
REMARK  112  A    between atoms: _301  and  _304
REMARK  113  A    between atoms: _304  and  _305
REMARK  114  A    between atoms: _308  and  _310
REMARK  115  A    between atoms: _310  and  _311
REMARK  116  A    between atoms: _310  and  _313
REMARK  117  A    between atoms: _313  and  _314
REMARK  118  A    between atoms: _314  and  _315
REMARK  119  A    between atoms: _320  and  _322
REMARK  120  A    between atoms: _322  and  _323
REMARK  121  A    between atoms: _322  and  _325
REMARK  122  A    between atoms: _328  and  _330
REMARK  123  A    between atoms: _330  and  _331
REMARK  124  A    between atoms: _330  and  _333
REMARK  125  A    between atoms: _333  and  _334
REMARK  126  A    between atoms: _336  and  _338
REMARK  127  A    between atoms: _338  and  _339
REMARK  128  A    between atoms: _338  and  _341
REMARK  129  A    between atoms: _341  and  _342
REMARK  130  A    between atoms: _342  and  _343
REMARK  131  A    between atoms: _343  and  _344
REMARK  132  A    between atoms: _353  and  _355
REMARK  133  A    between atoms: _355  and  _356
REMARK  134  A    between atoms: _355  and  _358
REMARK  135  A    between atoms: _358  and  _359
REMARK  136  A    between atoms: _359  and  _360
REMARK  137  A    between atoms: _360  and  _361
REMARK  138  A    between atoms: _361  and  _362
REMARK  139  A    between atoms: _366  and  _368
REMARK  140  A    between atoms: _368  and  _369
REMARK  141  A    between atoms: _368  and  _371
REMARK  142  A    between atoms: _371  and  _372
REMARK  143  A    between atoms: _372  and  _373
REMARK  144  A    between atoms: _373  and  _374
REMARK  145  A    between atoms: _374  and  _375
REMARK  146  A    between atoms: _379  and  _381
REMARK  147  A    between atoms: _381  and  _382
REMARK  148  A    between atoms: _381  and  _384
REMARK  149  A    between atoms: _384  and  _385
REMARK  150  A    between atoms: _385  and  _386
REMARK  151  A    between atoms: _391  and  _393
REMARK  152  A    between atoms: _393  and  _394
REMARK  153  A    between atoms: _393  and  _396
REMARK  154  A    between atoms: _399  and  _401
REMARK  155  A    between atoms: _401  and  _402
REMARK  156  A    between atoms: _401  and  _404
REMARK  157  A    between atoms: _408  and  _409
REMARK                            x       y       z     vdW  Elec       q    Type
REMARK                         _______ _______ _______ _____ _____    ______ ____
ROOT
ATOM      1  CA  SER A   1     -42.978 -59.552  61.412  0.00  0.00    +0.163 C 
ENDROOT
BRANCH   1   2
ATOM      2  N   SER A   1     -41.930 -58.703  62.012  0.00  0.00    -0.237 NA
ATOM      3  H   SER A   1     -40.964 -58.754  61.630  0.00  0.00    +0.142 HD
ENDBRANCH   1   2
BRANCH   1   4
ATOM      4  CB  SER A   1     -43.336 -60.690  62.354  0.00  0.00    +0.227 C 
ATOM      5  OG  SER A   1     -42.459 -61.227  62.996  0.00  0.00    -0.287 OA
ENDBRANCH   1   4
BRANCH   1   6
ATOM      6  C   SER A   1     -42.490 -60.142  60.089  0.00  0.00    +0.162 C 
BRANCH   6   7
ATOM      7  O   SER A   1     -43.400 -61.128  59.593  0.00  0.00    -0.380 OA
ATOM      8  H   SER A   1     -43.058 -61.491  58.738  0.00  0.00    +0.211 HD
ENDBRANCH   6   7
ENDBRANCH   1   6
TORSDOF 4
REMARK  Name = ../refined-set-2016/2iw4/2iw4_pocket.pdb
REMARK  157 active torsions:
REMARK  status: ('A' for Active; 'I' for Inactive)
REMARK    1  A    between atoms: _1  and  _3
REMARK    2  A    between atoms: _14  and  _17
REMARK    3  A    between atoms: _17  and  _18
REMARK    4  A    between atoms: _18  and  _19
REMARK    5  A    between atoms: _26  and  _29
REMARK    6  A    between atoms: _29  and  _30
REMARK    7  A    between atoms: _53  and  _56
REMARK    8  A    between atoms: _56  and  _57
REMARK    9  A    between atoms: _62  and  _63
REMARK   10  A    between atoms: _69  and  _71
REMARK   11  A    between atoms: _71  and  _72
REMARK   12  A    between atoms: _71  and  _74
REMARK   13  A    between atoms: _74  and  _75
REMARK   14  A    between atoms: _78  and  _80
REMARK   15  A    between atoms: _80  and  _81
REMARK   16  A    between atoms: _80  and  _83
REMARK   17  A    between atoms: _86  and  _88
REMARK   18  A    between atoms: _88  and  _89
REMARK   19  A    between atoms: _88  and  _91
REMARK   20  A    between atoms: _91  and  _92
REMARK   21  A    between atoms: _95  and  _97
REMARK   22  A    between atoms: _97  and  _98
REMARK   23  A    between atoms: _97  and  _100
REMARK   24  A    between atoms: _100  and  _101
REMARK   25  A    between atoms: _106  and  _108
REMARK   26  A    between atoms: _108  and  _109
REMARK   27  A    between atoms: _108  and  _111
REMARK   28  A    between atoms: _111  and  _112
REMARK   29  A    between atoms: _112  and  _113
REMARK   30  A    between atoms: _118  and  _120
REMARK   31  A    between atoms: _120  and  _121
REMARK   32  A    between atoms: _120  and  _123
REMARK   33  A    between atoms: _123  and  _124
REMARK   34  A    between atoms: _127  and  _129
REMARK   35  A    between atoms: _129  and  _130
REMARK   36  A    between atoms: _129  and  _132
REMARK   37  A    between atoms: _132  and  _133
REMARK   38  A    between atoms: _137  and  FE_415
REMARK   39  A    between atoms: _138  and  _140
REMARK   40  A    between atoms: _140  and  _141
REMARK   41  A    between atoms: _140  and  _143
REMARK   42  A    between atoms: _143  and  _144
REMARK   43  A    between atoms: _144  and  _145
REMARK   44  A    between atoms: _150  and  _152
REMARK   45  A    between atoms: _152  and  _153
REMARK   46  A    between atoms: _152  and  _155
REMARK   47  A    between atoms: _155  and  _156
REMARK   48  A    between atoms: _156  and  _157
REMARK   49  A    between atoms: _157  and  _158
REMARK   50  A    between atoms: _167  and  _169
REMARK   51  A    between atoms: _169  and  _170
REMARK   52  A    between atoms: _169  and  _172
REMARK   53  A    between atoms: _175  and  _177
REMARK   54  A    between atoms: _177  and  _178
REMARK   55  A    between atoms: _180  and  _182
REMARK   56  A    between atoms: _182  and  _183
REMARK   57  A    between atoms: _182  and  _185
REMARK   58  A    between atoms: _187  and  _189
REMARK   59  A    between atoms: _189  and  _190
REMARK   60  A    between atoms: _189  and  _192
REMARK   61  A    between atoms: _192  and  _193
REMARK   62  A    between atoms: _196  and  _198
REMARK   63  A    between atoms: _198  and  _199
REMARK   64  A    between atoms: _202  and  _204
REMARK   65  A    between atoms: _204  and  _205
REMARK   66  A    between atoms: _208  and  _210
REMARK   67  A    between atoms: _210  and  _211
REMARK   68  A    between atoms: _210  and  _213
REMARK   69  A    between atoms: _213  and  _214
REMARK   70  A    between atoms: _216  and  _218
REMARK   71  A    between atoms: _218  and  _219
REMARK   72  A    between atoms: _218  and  _221
REMARK   73  A    between atoms: _221  and  _222
REMARK   74  A    between atoms: _222  and  _223
REMARK   75  A    between atoms: _222  and  _224
REMARK   76  A    between atoms: _224  and  FE_415
REMARK   77  A    between atoms: _225  and  _227
REMARK   78  A    between atoms: _227  and  _228
REMARK   79  A    between atoms: _227  and  _230
REMARK   80  A    between atoms: _230  and  _231
REMARK   81  A    between atoms: _233  and  _235
REMARK   82  A    between atoms: _235  and  _236
REMARK   83  A    between atoms: _235  and  _238
REMARK   84  A    between atoms: _238  and  _239
REMARK   85  A    between atoms: _242  and  _244
REMARK   86  A    between atoms: _244  and  _245
REMARK   87  A    between atoms: _244  and  _247
REMARK   88  A    between atoms: _247  and  _248
REMARK   89  A    between atoms: _250  and  _252
REMARK   90  A    between atoms: _252  and  _253
REMARK   91  A    between atoms: _252  and  _255
REMARK   92  A    between atoms: _255  and  _256
REMARK   93  A    between atoms: _259  and  _261
REMARK   94  A    between atoms: _261  and  _262
REMARK   95  A    between atoms: _261  and  _264
REMARK   96  A    between atoms: _264  and  _265
REMARK   97  A    between atoms: _268  and  _270
REMARK   98  A    between atoms: _270  and  _271
REMARK   99  A    between atoms: _274  and  _276
REMARK  100  A    between atoms: _276  and  _277
REMARK  101  A    between atoms: _276  and  _279
REMARK  102  A    between atoms: _279  and  _280
REMARK  103  A    between atoms: _280  and  _281
REMARK  104  A    between atoms: _281  and  _282
REMARK  105  A    between atoms: _282  and  _283
REMARK  106  A    between atoms: _287  and  _289
REMARK  107  A    between atoms: _289  and  _290
REMARK  108  A    between atoms: _289  and  _292
REMARK  109  A    between atoms: _292  and  _293
REMARK  110  A    between atoms: _299  and  _301
REMARK  111  A    between atoms: _301  and  _302
REMARK  112  A    between atoms: _301  and  _304
REMARK  113  A    between atoms: _304  and  _305
REMARK  114  A    between atoms: _308  and  _310
REMARK  115  A    between atoms: _310  and  _311
REMARK  116  A    between atoms: _310  and  _313
REMARK  117  A    between atoms: _313  and  _314
REMARK  118  A    between atoms: _314  and  _315
REMARK  119  A    between atoms: _320  and  _322
REMARK  120  A    between atoms: _322  and  _323
REMARK  121  A    between atoms: _322  and  _325
REMARK  122  A    between atoms: _328  and  _330
REMARK  123  A    between atoms: _330  and  _331
REMARK  124  A    between atoms: _330  and  _333
REMARK  125  A    between atoms: _333  and  _334
REMARK  126  A    between atoms: _336  and  _338
REMARK  127  A    between atoms: _338  and  _339
REMARK  128  A    between atoms: _338  and  _341
REMARK  129  A    between atoms: _341  and  _342
REMARK  130  A    between atoms: _342  and  _343
REMARK  131  A    between atoms: _343  and  _344
REMARK  132  A    between atoms: _353  and  _355
REMARK  133  A    between atoms: _355  and  _356
REMARK  134  A    between atoms: _355  and  _358
REMARK  135  A    between atoms: _358  and  _359
REMARK  136  A    between atoms: _359  and  _360
REMARK  137  A    between atoms: _360  and  _361
REMARK  138  A    between atoms: _361  and  _362
REMARK  139  A    between atoms: _366  and  _368
REMARK  140  A    between atoms: _368  and  _369
REMARK  141  A    between atoms: _368  and  _371
REMARK  142  A    between atoms: _371  and  _372
REMARK  143  A    between atoms: _372  and  _373
REMARK  144  A    between atoms: _373  and  _374
REMARK  145  A    between atoms: _374  and  _375
REMARK  146  A    between atoms: _379  and  _381
REMARK  147  A    between atoms: _381  and  _382
REMARK  148  A    between atoms: _381  and  _384
REMARK  149  A    between atoms: _384  and  _385
REMARK  150  A    between atoms: _385  and  _386
REMARK  151  A    between atoms: _391  and  _393
REMARK  152  A    between atoms: _393  and  _394
REMARK  153  A    between atoms: _393  and  _396
REMARK  154  A    between atoms: _399  and  _401
REMARK  155  A    between atoms: _401  and  _402
REMARK  156  A    between atoms: _401  and  _404
REMARK  157  A    between atoms: _408  and  _409
REMARK                            x       y       z     vdW  Elec       q    Type
REMARK                         _______ _______ _______ _____ _____    ______ ____
ROOT
ATOM      1  CA  THR A   1     -43.157 -64.900  61.341  0.00  0.00    +0.160 C 
ENDROOT
BRANCH   1   2
ATOM      2  N   THR A   1     -43.844 -63.652  61.696  0.00  0.00    -0.237 NA
ATOM      3  H   THR A   1     -43.818 -62.841  61.046  0.00  0.00    +0.142 HD
ENDBRANCH   1   2
BRANCH   1   4
ATOM      4  C   THR A   1     -41.820 -65.072  62.088  0.00  0.00    +0.227 C 
ATOM      5  O   THR A   1     -41.270 -66.165  62.133  0.00  0.00    -0.287 OA
ENDBRANCH   1   4
BRANCH   1   6
ATOM      6  CB  THR A   1     -42.849 -64.969  59.865  0.00  0.00    +0.134 C 
ATOM      7  CG2 THR A   1     -44.136 -64.981  59.070  0.00  0.00    +0.034 C 
BRANCH   6   8
ATOM      8  OG1 THR A   1     -42.068 -63.823  59.517  0.00  0.00    -0.383 OA
ATOM      9  HG1 THR A   1     -41.856 -63.851  58.550  0.00  0.00    +0.210 HD
ENDBRANCH   6   8
ENDBRANCH   1   6
TORSDOF 4
REMARK  Name = ../refined-set-2016/2iw4/2iw4_pocket.pdb
REMARK  157 active torsions:
REMARK  status: ('A' for Active; 'I' for Inactive)
REMARK    1  A    between atoms: _1  and  _3
REMARK    2  A    between atoms: _14  and  _17
REMARK    3  A    between atoms: _17  and  _18
REMARK    4  A    between atoms: _18  and  _19
REMARK    5  A    between atoms: _26  and  _29
REMARK    6  A    between atoms: _29  and  _30
REMARK    7  A    between atoms: _53  and  _56
REMARK    8  A    between atoms: _56  and  _57
REMARK    9  A    between atoms: _62  and  _63
REMARK   10  A    between atoms: _69  and  _71
REMARK   11  A    between atoms: _71  and  _72
REMARK   12  A    between atoms: _71  and  _74
REMARK   13  A    between atoms: _74  and  _75
REMARK   14  A    between atoms: _78  and  _80
REMARK   15  A    between atoms: _80  and  _81
REMARK   16  A    between atoms: _80  and  _83
REMARK   17  A    between atoms: _86  and  _88
REMARK   18  A    between atoms: _88  and  _89
REMARK   19  A    between atoms: _88  and  _91
REMARK   20  A    between atoms: _91  and  _92
REMARK   21  A    between atoms: _95  and  _97
REMARK   22  A    between atoms: _97  and  _98
REMARK   23  A    between atoms: _97  and  _100
REMARK   24  A    between atoms: _100  and  _101
REMARK   25  A    between atoms: _106  and  _108
REMARK   26  A    between atoms: _108  and  _109
REMARK   27  A    between atoms: _108  and  _111
REMARK   28  A    between atoms: _111  and  _112
REMARK   29  A    between atoms: _112  and  _113
REMARK   30  A    between atoms: _118  and  _120
REMARK   31  A    between atoms: _120  and  _121
REMARK   32  A    between atoms: _120  and  _123
REMARK   33  A    between atoms: _123  and  _124
REMARK   34  A    between atoms: _127  and  _129
REMARK   35  A    between atoms: _129  and  _130
REMARK   36  A    between atoms: _129  and  _132
REMARK   37  A    between atoms: _132  and  _133
REMARK   38  A    between atoms: _137  and  FE_415
REMARK   39  A    between atoms: _138  and  _140
REMARK   40  A    between atoms: _140  and  _141
REMARK   41  A    between atoms: _140  and  _143
REMARK   42  A    between atoms: _143  and  _144
REMARK   43  A    between atoms: _144  and  _145
REMARK   44  A    between atoms: _150  and  _152
REMARK   45  A    between atoms: _152  and  _153
REMARK   46  A    between atoms: _152  and  _155
REMARK   47  A    between atoms: _155  and  _156
REMARK   48  A    between atoms: _156  and  _157
REMARK   49  A    between atoms: _157  and  _158
REMARK   50  A    between atoms: _167  and  _169
REMARK   51  A    between atoms: _169  and  _170
REMARK   52  A    between atoms: _169  and  _172
REMARK   53  A    between atoms: _175  and  _177
REMARK   54  A    between atoms: _177  and  _178
REMARK   55  A    between atoms: _180  and  _182
REMARK   56  A    between atoms: _182  and  _183
REMARK   57  A    between atoms: _182  and  _185
REMARK   58  A    between atoms: _187  and  _189
REMARK   59  A    between atoms: _189  and  _190
REMARK   60  A    between atoms: _189  and  _192
REMARK   61  A    between atoms: _192  and  _193
REMARK   62  A    between atoms: _196  and  _198
REMARK   63  A    between atoms: _198  and  _199
REMARK   64  A    between atoms: _202  and  _204
REMARK   65  A    between atoms: _204  and  _205
REMARK   66  A    between atoms: _208  and  _210
REMARK   67  A    between atoms: _210  and  _211
REMARK   68  A    between atoms: _210  and  _213
REMARK   69  A    between atoms: _213  and  _214
REMARK   70  A    between atoms: _216  and  _218
REMARK   71  A    between atoms: _218  and  _219
REMARK   72  A    between atoms: _218  and  _221
REMARK   73  A    between atoms: _221  and  _222
REMARK   74  A    between atoms: _222  and  _223
REMARK   75  A    between atoms: _222  and  _224
REMARK   76  A    between atoms: _224  and  FE_415
REMARK   77  A    between atoms: _225  and  _227
REMARK   78  A    between atoms: _227  and  _228
REMARK   79  A    between atoms: _227  and  _230
REMARK   80  A    between atoms: _230  and  _231
REMARK   81  A    between atoms: _233  and  _235
REMARK   82  A    between atoms: _235  and  _236
REMARK   83  A    between atoms: _235  and  _238
REMARK   84  A    between atoms: _238  and  _239
REMARK   85  A    between atoms: _242  and  _244
REMARK   86  A    between atoms: _244  and  _245
REMARK   87  A    between atoms: _244  and  _247
REMARK   88  A    between atoms: _247  and  _248
REMARK   89  A    between atoms: _250  and  _252
REMARK   90  A    between atoms: _252  and  _253
REMARK   91  A    between atoms: _252  and  _255
REMARK   92  A    between atoms: _255  and  _256
REMARK   93  A    between atoms: _259  and  _261
REMARK   94  A    between atoms: _261  and  _262
REMARK   95  A    between atoms: _261  and  _264
REMARK   96  A    between atoms: _264  and  _265
REMARK   97  A    between atoms: _268  and  _270
REMARK   98  A    between atoms: _270  and  _271
REMARK   99  A    between atoms: _274  and  _276
REMARK  100  A    between atoms: _276  and  _277
REMARK  101  A    between atoms: _276  and  _279
REMARK  102  A    between atoms: _279  and  _280
REMARK  103  A    between atoms: _280  and  _281
REMARK  104  A    between atoms: _281  and  _282
REMARK  105  A    between atoms: _282  and  _283
REMARK  106  A    between atoms: _287  and  _289
REMARK  107  A    between atoms: _289  and  _290
REMARK  108  A    between atoms: _289  and  _292
REMARK  109  A    between atoms: _292  and  _293
REMARK  110  A    between atoms: _299  and  _301
REMARK  111  A    between atoms: _301  and  _302
REMARK  112  A    between atoms: _301  and  _304
REMARK  113  A    between atoms: _304  and  _305
REMARK  114  A    between atoms: _308  and  _310
REMARK  115  A    between atoms: _310  and  _311
REMARK  116  A    between atoms: _310  and  _313
REMARK  117  A    between atoms: _313  and  _314
REMARK  118  A    between atoms: _314  and  _315
REMARK  119  A    between atoms: _320  and  _322
REMARK  120  A    between atoms: _322  and  _323
REMARK  121  A    between atoms: _322  and  _325
REMARK  122  A    between atoms: _328  and  _330
REMARK  123  A    between atoms: _330  and  _331
REMARK  124  A    between atoms: _330  and  _333
REMARK  125  A    between atoms: _333  and  _334
REMARK  126  A    between atoms: _336  and  _338
REMARK  127  A    between atoms: _338  and  _339
REMARK  128  A    between atoms: _338  and  _341
REMARK  129  A    between atoms: _341  and  _342
REMARK  130  A    between atoms: _342  and  _343
REMARK  131  A    between atoms: _343  and  _344
REMARK  132  A    between atoms: _353  and  _355
REMARK  133  A    between atoms: _355  and  _356
REMARK  134  A    between atoms: _355  and  _358
REMARK  135  A    between atoms: _358  and  _359
REMARK  136  A    between atoms: _359  and  _360
REMARK  137  A    between atoms: _360  and  _361
REMARK  138  A    between atoms: _361  and  _362
REMARK  139  A    between atoms: _366  and  _368
REMARK  140  A    between atoms: _368  and  _369
REMARK  141  A    between atoms: _368  and  _371
REMARK  142  A    between atoms: _371  and  _372
REMARK  143  A    between atoms: _372  and  _373
REMARK  144  A    between atoms: _373  and  _374
REMARK  145  A    between atoms: _374  and  _375
REMARK  146  A    between atoms: _379  and  _381
REMARK  147  A    between atoms: _381  and  _382
REMARK  148  A    between atoms: _381  and  _384
REMARK  149  A    between atoms: _384  and  _385
REMARK  150  A    between atoms: _385  and  _386
REMARK  151  A    between atoms: _391  and  _393
REMARK  152  A    between atoms: _393  and  _394
REMARK  153  A    between atoms: _393  and  _396
REMARK  154  A    between atoms: _399  and  _401
REMARK  155  A    between atoms: _401  and  _402
REMARK  156  A    between atoms: _401  and  _404
REMARK  157  A    between atoms: _408  and  _409
REMARK                            x       y       z     vdW  Elec       q    Type
REMARK                         _______ _______ _______ _____ _____    ______ ____
ROOT
ATOM      1  C   ALA A   2     -45.435 -62.758  43.365  0.00  0.00    +0.241 C 
ATOM      2  N   LYS A   3     -46.487 -63.434  43.853  0.00  0.00    -0.298 N 
ATOM      3  H   LYS A   3     -47.299 -62.888  44.204  0.00  0.00    +0.150 HD
ATOM      4  O   ALA A   2     -44.377 -63.294  42.995  0.00  0.00    -0.273 OA
ENDROOT
BRANCH   1   5
ATOM      5  CA  ALA A   2     -45.608 -61.233  43.265  0.00  0.00    +0.149 C 
ATOM      6  CB  ALA A   2     -46.138 -60.847  41.875  0.00  0.00    +0.031 C 
BRANCH   5   9
ATOM      7  C   ASP A   1     -44.147 -60.029  44.759  0.00  0.00    +0.239 C 
ATOM      8  O   ASP A   1     -44.995 -60.080  45.680  0.00  0.00    -0.274 OA
ATOM      9  N   ALA A   2     -44.367 -60.528  43.544  0.00  0.00    -0.297 N 
ATOM     10  H   ALA A   2     -43.653 -60.414  42.796  0.00  0.00    +0.150 HD
BRANCH   7  11
ATOM     11  CA  ASP A   1     -42.776 -59.377  44.962  0.00  0.00    +0.156 C 
BRANCH  11  12
ATOM     12  N   ASP A   1     -42.605 -58.389  43.914  0.00  0.00    -0.238 NA
ATOM     13  H   ASP A   1     -43.353 -57.692  43.724  0.00  0.00    +0.142 HD
ENDBRANCH  11  12
BRANCH  11  14
ATOM     14  CB  ASP A   1     -42.631 -58.700  46.325  0.00  0.00    +0.140 C 
BRANCH  14  15
ATOM     15  CG  ASP A   1     -42.601 -59.669  47.492  0.00  0.00    +0.367 C 
ATOM     16  OD2 ASP A   1     -42.747 -59.198  48.635  0.00  0.00    -0.246 OA
ATOM     17  OD1 ASP A   1     -42.412 -60.873  47.292  0.00  0.00    -0.246 OA
ENDBRANCH  14  15
ENDBRANCH  11  14
ENDBRANCH   7  11
ENDBRANCH   5   9
ENDBRANCH   1   5
BRANCH   2  18
ATOM     18  CA  LYS A   3     -46.558 -64.900  43.920  0.00  0.00    +0.137 C 
BRANCH  18  19
ATOM     19  C   LYS A   3     -47.935 -65.380  43.512  0.00  0.00    +0.227 C 
ATOM     20  O   LYS A   3     -48.942 -64.830  43.942  0.00  0.00    -0.286 OA
ENDBRANCH  18  19
BRANCH  18  21
ATOM     21  CB  LYS A   3     -46.277 -65.386  45.329  0.00  0.00    +0.028 C 
BRANCH  21  22
ATOM     22  CG  LYS A   3     -44.823 -65.403  45.697  0.00  0.00    -0.000 C 
BRANCH  22  23
ATOM     23  CD  LYS A   3     -44.634 -65.739  47.130  0.00  0.00    -0.024 C 
BRANCH  23  24
ATOM     24  CE  LYS A   3     -43.166 -65.660  47.542  0.00  0.00    -0.086 C 
BRANCH  24  25
ATOM     25  NZ  LYS A   3     -42.933 -66.367  48.850  0.00  0.00    +0.380 N 
ATOM     26  HZ1 LYS A   3     -43.512 -65.923  49.591  0.00  0.00    -0.089 HD
ATOM     27  HZ2 LYS A   3     -41.927 -66.298  49.106  0.00  0.00    -0.089 HD
ATOM     28  HZ3 LYS A   3     -43.199 -67.368  48.754  0.00  0.00    -0.089 HD
ENDBRANCH  24  25
ENDBRANCH  23  24
ENDBRANCH  22  23
ENDBRANCH  21  22
ENDBRANCH  18  21
ENDBRANCH   2  18
TORSDOF 13
REMARK  Name = ../refined-set-2016/2iw4/2iw4_pocket.pdb
REMARK  157 active torsions:
REMARK  status: ('A' for Active; 'I' for Inactive)
REMARK    1  A    between atoms: _1  and  _3
REMARK    2  A    between atoms: _14  and  _17
REMARK    3  A    between atoms: _17  and  _18
REMARK    4  A    between atoms: _18  and  _19
REMARK    5  A    between atoms: _26  and  _29
REMARK    6  A    between atoms: _29  and  _30
REMARK    7  A    between atoms: _53  and  _56
REMARK    8  A    between atoms: _56  and  _57
REMARK    9  A    between atoms: _62  and  _63
REMARK   10  A    between atoms: _69  and  _71
REMARK   11  A    between atoms: _71  and  _72
REMARK   12  A    between atoms: _71  and  _74
REMARK   13  A    between atoms: _74  and  _75
REMARK   14  A    between atoms: _78  and  _80
REMARK   15  A    between atoms: _80  and  _81
REMARK   16  A    between atoms: _80  and  _83
REMARK   17  A    between atoms: _86  and  _88
REMARK   18  A    between atoms: _88  and  _89
REMARK   19  A    between atoms: _88  and  _91
REMARK   20  A    between atoms: _91  and  _92
REMARK   21  A    between atoms: _95  and  _97
REMARK   22  A    between atoms: _97  and  _98
REMARK   23  A    between atoms: _97  and  _100
REMARK   24  A    between atoms: _100  and  _101
REMARK   25  A    between atoms: _106  and  _108
REMARK   26  A    between atoms: _108  and  _109
REMARK   27  A    between atoms: _108  and  _111
REMARK   28  A    between atoms: _111  and  _112
REMARK   29  A    between atoms: _112  and  _113
REMARK   30  A    between atoms: _118  and  _120
REMARK   31  A    between atoms: _120  and  _121
REMARK   32  A    between atoms: _120  and  _123
REMARK   33  A    between atoms: _123  and  _124
REMARK   34  A    between atoms: _127  and  _129
REMARK   35  A    between atoms: _129  and  _130
REMARK   36  A    between atoms: _129  and  _132
REMARK   37  A    between atoms: _132  and  _133
REMARK   38  A    between atoms: _137  and  FE_415
REMARK   39  A    between atoms: _138  and  _140
REMARK   40  A    between atoms: _140  and  _141
REMARK   41  A    between atoms: _140  and  _143
REMARK   42  A    between atoms: _143  and  _144
REMARK   43  A    between atoms: _144  and  _145
REMARK   44  A    between atoms: _150  and  _152
REMARK   45  A    between atoms: _152  and  _153
REMARK   46  A    between atoms: _152  and  _155
REMARK   47  A    between atoms: _155  and  _156
REMARK   48  A    between atoms: _156  and  _157
REMARK   49  A    between atoms: _157  and  _158
REMARK   50  A    between atoms: _167  and  _169
REMARK   51  A    between atoms: _169  and  _170
REMARK   52  A    between atoms: _169  and  _172
REMARK   53  A    between atoms: _175  and  _177
REMARK   54  A    between atoms: _177  and  _178
REMARK   55  A    between atoms: _180  and  _182
REMARK   56  A    between atoms: _182  and  _183
REMARK   57  A    between atoms: _182  and  _185
REMARK   58  A    between atoms: _187  and  _189
REMARK   59  A    between atoms: _189  and  _190
REMARK   60  A    between atoms: _189  and  _192
REMARK   61  A    between atoms: _192  and  _193
REMARK   62  A    between atoms: _196  and  _198
REMARK   63  A    between atoms: _198  and  _199
REMARK   64  A    between atoms: _202  and  _204
REMARK   65  A    between atoms: _204  and  _205
REMARK   66  A    between atoms: _208  and  _210
REMARK   67  A    between atoms: _210  and  _211
REMARK   68  A    between atoms: _210  and  _213
REMARK   69  A    between atoms: _213  and  _214
REMARK   70  A    between atoms: _216  and  _218
REMARK   71  A    between atoms: _218  and  _219
REMARK   72  A    between atoms: _218  and  _221
REMARK   73  A    between atoms: _221  and  _222
REMARK   74  A    between atoms: _222  and  _223
REMARK   75  A    between atoms: _222  and  _224
REMARK   76  A    between atoms: _224  and  FE_415
REMARK   77  A    between atoms: _225  and  _227
REMARK   78  A    between atoms: _227  and  _228
REMARK   79  A    between atoms: _227  and  _230
REMARK   80  A    between atoms: _230  and  _231
REMARK   81  A    between atoms: _233  and  _235
REMARK   82  A    between atoms: _235  and  _236
REMARK   83  A    between atoms: _235  and  _238
REMARK   84  A    between atoms: _238  and  _239
REMARK   85  A    between atoms: _242  and  _244
REMARK   86  A    between atoms: _244  and  _245
REMARK   87  A    between atoms: _244  and  _247
REMARK   88  A    between atoms: _247  and  _248
REMARK   89  A    between atoms: _250  and  _252
REMARK   90  A    between atoms: _252  and  _253
REMARK   91  A    between atoms: _252  and  _255
REMARK   92  A    between atoms: _255  and  _256
REMARK   93  A    between atoms: _259  and  _261
REMARK   94  A    between atoms: _261  and  _262
REMARK   95  A    between atoms: _261  and  _264
REMARK   96  A    between atoms: _264  and  _265
REMARK   97  A    between atoms: _268  and  _270
REMARK   98  A    between atoms: _270  and  _271
REMARK   99  A    between atoms: _274  and  _276
REMARK  100  A    between atoms: _276  and  _277
REMARK  101  A    between atoms: _276  and  _279
REMARK  102  A    between atoms: _279  and  _280
REMARK  103  A    between atoms: _280  and  _281
REMARK  104  A    between atoms: _281  and  _282
REMARK  105  A    between atoms: _282  and  _283
REMARK  106  A    between atoms: _287  and  _289
REMARK  107  A    between atoms: _289  and  _290
REMARK  108  A    between atoms: _289  and  _292
REMARK  109  A    between atoms: _292  and  _293
REMARK  110  A    between atoms: _299  and  _301
REMARK  111  A    between atoms: _301  and  _302
REMARK  112  A    between atoms: _301  and  _304
REMARK  113  A    between atoms: _304  and  _305
REMARK  114  A    between atoms: _308  and  _310
REMARK  115  A    between atoms: _310  and  _311
REMARK  116  A    between atoms: _310  and  _313
REMARK  117  A    between atoms: _313  and  _314
REMARK  118  A    between atoms: _314  and  _315
REMARK  119  A    between atoms: _320  and  _322
REMARK  120  A    between atoms: _322  and  _323
REMARK  121  A    between atoms: _322  and  _325
REMARK  122  A    between atoms: _328  and  _330
REMARK  123  A    between atoms: _330  and  _331
REMARK  124  A    between atoms: _330  and  _333
REMARK  125  A    between atoms: _333  and  _334
REMARK  126  A    between atoms: _336  and  _338
REMARK  127  A    between atoms: _338  and  _339
REMARK  128  A    between atoms: _338  and  _341
REMARK  129  A    between atoms: _341  and  _342
REMARK  130  A    between atoms: _342  and  _343
REMARK  131  A    between atoms: _343  and  _344
REMARK  132  A    between atoms: _353  and  _355
REMARK  133  A    between atoms: _355  and  _356
REMARK  134  A    between atoms: _355  and  _358
REMARK  135  A    between atoms: _358  and  _359
REMARK  136  A    between atoms: _359  and  _360
REMARK  137  A    between atoms: _360  and  _361
REMARK  138  A    between atoms: _361  and  _362
REMARK  139  A    between atoms: _366  and  _368
REMARK  140  A    between atoms: _368  and  _369
REMARK  141  A    between atoms: _368  and  _371
REMARK  142  A    between atoms: _371  and  _372
REMARK  143  A    between atoms: _372  and  _373
REMARK  144  A    between atoms: _373  and  _374
REMARK  145  A    between atoms: _374  and  _375
REMARK  146  A    between atoms: _379  and  _381
REMARK  147  A    between atoms: _381  and  _382
REMARK  148  A    between atoms: _381  and  _384
REMARK  149  A    between atoms: _384  and  _385
REMARK  150  A    between atoms: _385  and  _386
REMARK  151  A    between atoms: _391  and  _393
REMARK  152  A    between atoms: _393  and  _394
REMARK  153  A    between atoms: _393  and  _396
REMARK  154  A    between atoms: _399  and  _401
REMARK  155  A    between atoms: _401  and  _402
REMARK  156  A    between atoms: _401  and  _404
REMARK  157  A    between atoms: _408  and  _409
REMARK                            x       y       z     vdW  Elec       q    Type
REMARK                         _______ _______ _______ _____ _____    ______ ____
ROOT
ATOM      1  CB  PHE A   1     -51.708 -68.899  45.809  0.00  0.00    +0.051 C 
ENDROOT
BRANCH   1   2
ATOM      2  CG  PHE A   1     -50.548 -68.364  46.557  0.00  0.00    -0.020 A 
ATOM      3  CD2 PHE A   1     -49.758 -69.213  47.312  0.00  0.00    -0.004 A 
ATOM      4  CE2 PHE A   1     -48.653 -68.722  47.991  0.00  0.00    -0.000 A 
ATOM      5  CZ  PHE A   1     -48.341 -67.363  47.906  0.00  0.00    -0.000 A 
ATOM      6  CE1 PHE A   1     -49.141 -66.505  47.168  0.00  0.00    -0.000 A 
ATOM      7  CD1 PHE A   1     -50.225 -67.005  46.492  0.00  0.00    -0.004 A 
ENDBRANCH   1   2
BRANCH   1   8
ATOM      8  CA  PHE A   1     -51.334 -69.483  44.436  0.00  0.00    +0.137 C 
BRANCH   8   9
ATOM      9  N   PHE A   1     -50.811 -68.444  43.559  0.00  0.00    -0.239 NA
ATOM     10  H   PHE A   1     -51.492 -67.803  43.103  0.00  0.00    +0.142 HD
ENDBRANCH   8   9
BRANCH   8  11
ATOM     11  C   PHE A   1     -52.600 -70.049  43.785  0.00  0.00    +0.224 C 
ATOM     12  O   PHE A   1     -53.236 -69.381  42.963  0.00  0.00    -0.287 OA
ENDBRANCH   8  11
ENDBRANCH   1   8
TORSDOF 4
REMARK  Name = ../refined-set-2016/2iw4/2iw4_pocket.pdb
REMARK  157 active torsions:
REMARK  status: ('A' for Active; 'I' for Inactive)
REMARK    1  A    between atoms: _1  and  _3
REMARK    2  A    between atoms: _14  and  _17
REMARK    3  A    between atoms: _17  and  _18
REMARK    4  A    between atoms: _18  and  _19
REMARK    5  A    between atoms: _26  and  _29
REMARK    6  A    between atoms: _29  and  _30
REMARK    7  A    between atoms: _53  and  _56
REMARK    8  A    between atoms: _56  and  _57
REMARK    9  A    between atoms: _62  and  _63
REMARK   10  A    between atoms: _69  and  _71
REMARK   11  A    between atoms: _71  and  _72
REMARK   12  A    between atoms: _71  and  _74
REMARK   13  A    between atoms: _74  and  _75
REMARK   14  A    between atoms: _78  and  _80
REMARK   15  A    between atoms: _80  and  _81
REMARK   16  A    between atoms: _80  and  _83
REMARK   17  A    between atoms: _86  and  _88
REMARK   18  A    between atoms: _88  and  _89
REMARK   19  A    between atoms: _88  and  _91
REMARK   20  A    between atoms: _91  and  _92
REMARK   21  A    between atoms: _95  and  _97
REMARK   22  A    between atoms: _97  and  _98
REMARK   23  A    between atoms: _97  and  _100
REMARK   24  A    between atoms: _100  and  _101
REMARK   25  A    between atoms: _106  and  _108
REMARK   26  A    between atoms: _108  and  _109
REMARK   27  A    between atoms: _108  and  _111
REMARK   28  A    between atoms: _111  and  _112
REMARK   29  A    between atoms: _112  and  _113
REMARK   30  A    between atoms: _118  and  _120
REMARK   31  A    between atoms: _120  and  _121
REMARK   32  A    between atoms: _120  and  _123
REMARK   33  A    between atoms: _123  and  _124
REMARK   34  A    between atoms: _127  and  _129
REMARK   35  A    between atoms: _129  and  _130
REMARK   36  A    between atoms: _129  and  _132
REMARK   37  A    between atoms: _132  and  _133
REMARK   38  A    between atoms: _137  and  FE_415
REMARK   39  A    between atoms: _138  and  _140
REMARK   40  A    between atoms: _140  and  _141
REMARK   41  A    between atoms: _140  and  _143
REMARK   42  A    between atoms: _143  and  _144
REMARK   43  A    between atoms: _144  and  _145
REMARK   44  A    between atoms: _150  and  _152
REMARK   45  A    between atoms: _152  and  _153
REMARK   46  A    between atoms: _152  and  _155
REMARK   47  A    between atoms: _155  and  _156
REMARK   48  A    between atoms: _156  and  _157
REMARK   49  A    between atoms: _157  and  _158
REMARK   50  A    between atoms: _167  and  _169
REMARK   51  A    between atoms: _169  and  _170
REMARK   52  A    between atoms: _169  and  _172
REMARK   53  A    between atoms: _175  and  _177
REMARK   54  A    between atoms: _177  and  _178
REMARK   55  A    between atoms: _180  and  _182
REMARK   56  A    between atoms: _182  and  _183
REMARK   57  A    between atoms: _182  and  _185
REMARK   58  A    between atoms: _187  and  _189
REMARK   59  A    between atoms: _189  and  _190
REMARK   60  A    between atoms: _189  and  _192
REMARK   61  A    between atoms: _192  and  _193
REMARK   62  A    between atoms: _196  and  _198
REMARK   63  A    between atoms: _198  and  _199
REMARK   64  A    between atoms: _202  and  _204
REMARK   65  A    between atoms: _204  and  _205
REMARK   66  A    between atoms: _208  and  _210
REMARK   67  A    between atoms: _210  and  _211
REMARK   68  A    between atoms: _210  and  _213
REMARK   69  A    between atoms: _213  and  _214
REMARK   70  A    between atoms: _216  and  _218
REMARK   71  A    between atoms: _218  and  _219
REMARK   72  A    between atoms: _218  and  _221
REMARK   73  A    between atoms: _221  and  _222
REMARK   74  A    between atoms: _222  and  _223
REMARK   75  A    between atoms: _222  and  _224
REMARK   76  A    between atoms: _224  and  FE_415
REMARK   77  A    between atoms: _225  and  _227
REMARK   78  A    between atoms: _227  and  _228
REMARK   79  A    between atoms: _227  and  _230
REMARK   80  A    between atoms: _230  and  _231
REMARK   81  A    between atoms: _233  and  _235
REMARK   82  A    between atoms: _235  and  _236
REMARK   83  A    between atoms: _235  and  _238
REMARK   84  A    between atoms: _238  and  _239
REMARK   85  A    between atoms: _242  and  _244
REMARK   86  A    between atoms: _244  and  _245
REMARK   87  A    between atoms: _244  and  _247
REMARK   88  A    between atoms: _247  and  _248
REMARK   89  A    between atoms: _250  and  _252
REMARK   90  A    between atoms: _252  and  _253
REMARK   91  A    between atoms: _252  and  _255
REMARK   92  A    between atoms: _255  and  _256
REMARK   93  A    between atoms: _259  and  _261
REMARK   94  A    between atoms: _261  and  _262
REMARK   95  A    between atoms: _261  and  _264
REMARK   96  A    between atoms: _264  and  _265
REMARK   97  A    between atoms: _268  and  _270
REMARK   98  A    between atoms: _270  and  _271
REMARK   99  A    between atoms: _274  and  _276
REMARK  100  A    between atoms: _276  and  _277
REMARK  101  A    between atoms: _276  and  _279
REMARK  102  A    between atoms: _279  and  _280
REMARK  103  A    between atoms: _280  and  _281
REMARK  104  A    between atoms: _281  and  _282
REMARK  105  A    between atoms: _282  and  _283
REMARK  106  A    between atoms: _287  and  _289
REMARK  107  A    between atoms: _289  and  _290
REMARK  108  A    between atoms: _289  and  _292
REMARK  109  A    between atoms: _292  and  _293
REMARK  110  A    between atoms: _299  and  _301
REMARK  111  A    between atoms: _301  and  _302
REMARK  112  A    between atoms: _301  and  _304
REMARK  113  A    between atoms: _304  and  _305
REMARK  114  A    between atoms: _308  and  _310
REMARK  115  A    between atoms: _310  and  _311
REMARK  116  A    between atoms: _310  and  _313
REMARK  117  A    between atoms: _313  and  _314
REMARK  118  A    between atoms: _314  and  _315
REMARK  119  A    between atoms: _320  and  _322
REMARK  120  A    between atoms: _322  and  _323
REMARK  121  A    between atoms: _322  and  _325
REMARK  122  A    between atoms: _328  and  _330
REMARK  123  A    between atoms: _330  and  _331
REMARK  124  A    between atoms: _330  and  _333
REMARK  125  A    between atoms: _333  and  _334
REMARK  126  A    between atoms: _336  and  _338
REMARK  127  A    between atoms: _338  and  _339
REMARK  128  A    between atoms: _338  and  _341
REMARK  129  A    between atoms: _341  and  _342
REMARK  130  A    between atoms: _342  and  _343
REMARK  131  A    between atoms: _343  and  _344
REMARK  132  A    between atoms: _353  and  _355
REMARK  133  A    between atoms: _355  and  _356
REMARK  134  A    between atoms: _355  and  _358
REMARK  135  A    between atoms: _358  and  _359
REMARK  136  A    between atoms: _359  and  _360
REMARK  137  A    between atoms: _360  and  _361
REMARK  138  A    between atoms: _361  and  _362
REMARK  139  A    between atoms: _366  and  _368
REMARK  140  A    between atoms: _368  and  _369
REMARK  141  A    between atoms: _368  and  _371
REMARK  142  A    between atoms: _371  and  _372
REMARK  143  A    between atoms: _372  and  _373
REMARK  144  A    between atoms: _373  and  _374
REMARK  145  A    between atoms: _374  and  _375
REMARK  146  A    between atoms: _379  and  _381
REMARK  147  A    between atoms: _381  and  _382
REMARK  148  A    between atoms: _381  and  _384
REMARK  149  A    between atoms: _384  and  _385
REMARK  150  A    between atoms: _385  and  _386
REMARK  151  A    between atoms: _391  and  _393
REMARK  152  A    between atoms: _393  and  _394
REMARK  153  A    between atoms: _393  and  _396
REMARK  154  A    between atoms: _399  and  _401
REMARK  155  A    between atoms: _401  and  _402
REMARK  156  A    between atoms: _401  and  _404
REMARK  157  A    between atoms: _408  and  _409
REMARK                            x       y       z     vdW  Elec       q    Type
REMARK                         _______ _______ _______ _____ _____    ______ ____
ROOT
ATOM      1  CA  ILE A   1     -50.763 -61.859  45.679  0.00  0.00    +0.133 C 
ENDROOT
BRANCH   1   2
ATOM      2  N   ILE A   1     -50.944 -62.803  44.592  0.00  0.00    -0.239 NA
ATOM      3  H   ILE A   1     -50.265 -63.583  44.480  0.00  0.00    +0.142 HD
ENDBRANCH   1   2
BRANCH   1   4
ATOM      4  CB  ILE A   1     -50.913 -62.538  47.076  0.00  0.00    +0.023 C 
ATOM      5  CG2 ILE A   1     -50.854 -61.518  48.223  0.00  0.00    +0.002 C 
BRANCH   4   6
ATOM      6  CG1 ILE A   1     -52.204 -63.400  47.139  0.00  0.00    +0.002 C 
ATOM      7  CD1 ILE A   1     -52.305 -64.333  48.402  0.00  0.00    +0.000 C 
ENDBRANCH   4   6
ENDBRANCH   1   4
BRANCH   1   8
ATOM      8  C   ILE A   1     -49.402 -61.221  45.536  0.00  0.00    +0.224 C 
ATOM      9  O   ILE A   1     -48.350 -61.901  45.625  0.00  0.00    -0.287 OA
ENDBRANCH   1   8
TORSDOF 4
REMARK  Name = ../refined-set-2016/2iw4/2iw4_pocket.pdb
REMARK  157 active torsions:
REMARK  status: ('A' for Active; 'I' for Inactive)
REMARK    1  A    between atoms: _1  and  _3
REMARK    2  A    between atoms: _14  and  _17
REMARK    3  A    between atoms: _17  and  _18
REMARK    4  A    between atoms: _18  and  _19
REMARK    5  A    between atoms: _26  and  _29
REMARK    6  A    between atoms: _29  and  _30
REMARK    7  A    between atoms: _53  and  _56
REMARK    8  A    between atoms: _56  and  _57
REMARK    9  A    between atoms: _62  and  _63
REMARK   10  A    between atoms: _69  and  _71
REMARK   11  A    between atoms: _71  and  _72
REMARK   12  A    between atoms: _71  and  _74
REMARK   13  A    between atoms: _74  and  _75
REMARK   14  A    between atoms: _78  and  _80
REMARK   15  A    between atoms: _80  and  _81
REMARK   16  A    between atoms: _80  and  _83
REMARK   17  A    between atoms: _86  and  _88
REMARK   18  A    between atoms: _88  and  _89
REMARK   19  A    between atoms: _88  and  _91
REMARK   20  A    between atoms: _91  and  _92
REMARK   21  A    between atoms: _95  and  _97
REMARK   22  A    between atoms: _97  and  _98
REMARK   23  A    between atoms: _97  and  _100
REMARK   24  A    between atoms: _100  and  _101
REMARK   25  A    between atoms: _106  and  _108
REMARK   26  A    between atoms: _108  and  _109
REMARK   27  A    between atoms: _108  and  _111
REMARK   28  A    between atoms: _111  and  _112
REMARK   29  A    between atoms: _112  and  _113
REMARK   30  A    between atoms: _118  and  _120
REMARK   31  A    between atoms: _120  and  _121
REMARK   32  A    between atoms: _120  and  _123
REMARK   33  A    between atoms: _123  and  _124
REMARK   34  A    between atoms: _127  and  _129
REMARK   35  A    between atoms: _129  and  _130
REMARK   36  A    between atoms: _129  and  _132
REMARK   37  A    between atoms: _132  and  _133
REMARK   38  A    between atoms: _137  and  FE_415
REMARK   39  A    between atoms: _138  and  _140
REMARK   40  A    between atoms: _140  and  _141
REMARK   41  A    between atoms: _140  and  _143
REMARK   42  A    between atoms: _143  and  _144
REMARK   43  A    between atoms: _144  and  _145
REMARK   44  A    between atoms: _150  and  _152
REMARK   45  A    between atoms: _152  and  _153
REMARK   46  A    between atoms: _152  and  _155
REMARK   47  A    between atoms: _155  and  _156
REMARK   48  A    between atoms: _156  and  _157
REMARK   49  A    between atoms: _157  and  _158
REMARK   50  A    between atoms: _167  and  _169
REMARK   51  A    between atoms: _169  and  _170
REMARK   52  A    between atoms: _169  and  _172
REMARK   53  A    between atoms: _175  and  _177
REMARK   54  A    between atoms: _177  and  _178
REMARK   55  A    between atoms: _180  and  _182
REMARK   56  A    between atoms: _182  and  _183
REMARK   57  A    between atoms: _182  and  _185
REMARK   58  A    between atoms: _187  and  _189
REMARK   59  A    between atoms: _189  and  _190
REMARK   60  A    between atoms: _189  and  _192
REMARK   61  A    between atoms: _192  and  _193
REMARK   62  A    between atoms: _196  and  _198
REMARK   63  A    between atoms: _198  and  _199
REMARK   64  A    between atoms: _202  and  _204
REMARK   65  A    between atoms: _204  and  _205
REMARK   66  A    between atoms: _208  and  _210
REMARK   67  A    between atoms: _210  and  _211
REMARK   68  A    between atoms: _210  and  _213
REMARK   69  A    between atoms: _213  and  _214
REMARK   70  A    between atoms: _216  and  _218
REMARK   71  A    between atoms: _218  and  _219
REMARK   72  A    between atoms: _218  and  _221
REMARK   73  A    between atoms: _221  and  _222
REMARK   74  A    between atoms: _222  and  _223
REMARK   75  A    between atoms: _222  and  _224
REMARK   76  A    between atoms: _224  and  FE_415
REMARK   77  A    between atoms: _225  and  _227
REMARK   78  A    between atoms: _227  and  _228
REMARK   79  A    between atoms: _227  and  _230
REMARK   80  A    between atoms: _230  and  _231
REMARK   81  A    between atoms: _233  and  _235
REMARK   82  A    between atoms: _235  and  _236
REMARK   83  A    between atoms: _235  and  _238
REMARK   84  A    between atoms: _238  and  _239
REMARK   85  A    between atoms: _242  and  _244
REMARK   86  A    between atoms: _244  and  _245
REMARK   87  A    between atoms: _244  and  _247
REMARK   88  A    between atoms: _247  and  _248
REMARK   89  A    between atoms: _250  and  _252
REMARK   90  A    between atoms: _252  and  _253
REMARK   91  A    between atoms: _252  and  _255
REMARK   92  A    between atoms: _255  and  _256
REMARK   93  A    between atoms: _259  and  _261
REMARK   94  A    between atoms: _261  and  _262
REMARK   95  A    between atoms: _261  and  _264
REMARK   96  A    between atoms: _264  and  _265
REMARK   97  A    between atoms: _268  and  _270
REMARK   98  A    between atoms: _270  and  _271
REMARK   99  A    between atoms: _274  and  _276
REMARK  100  A    between atoms: _276  and  _277
REMARK  101  A    between atoms: _276  and  _279
REMARK  102  A    between atoms: _279  and  _280
REMARK  103  A    between atoms: _280  and  _281
REMARK  104  A    between atoms: _281  and  _282
REMARK  105  A    between atoms: _282  and  _283
REMARK  106  A    between atoms: _287  and  _289
REMARK  107  A    between atoms: _289  and  _290
REMARK  108  A    between atoms: _289  and  _292
REMARK  109  A    between atoms: _292  and  _293
REMARK  110  A    between atoms: _299  and  _301
REMARK  111  A    between atoms: _301  and  _302
REMARK  112  A    between atoms: _301  and  _304
REMARK  113  A    between atoms: _304  and  _305
REMARK  114  A    between atoms: _308  and  _310
REMARK  115  A    between atoms: _310  and  _311
REMARK  116  A    between atoms: _310  and  _313
REMARK  117  A    between atoms: _313  and  _314
REMARK  118  A    between atoms: _314  and  _315
REMARK  119  A    between atoms: _320  and  _322
REMARK  120  A    between atoms: _322  and  _323
REMARK  121  A    between atoms: _322  and  _325
REMARK  122  A    between atoms: _328  and  _330
REMARK  123  A    between atoms: _330  and  _331
REMARK  124  A    between atoms: _330  and  _333
REMARK  125  A    between atoms: _333  and  _334
REMARK  126  A    between atoms: _336  and  _338
REMARK  127  A    between atoms: _338  and  _339
REMARK  128  A    between atoms: _338  and  _341
REMARK  129  A    between atoms: _341  and  _342
REMARK  130  A    between atoms: _342  and  _343
REMARK  131  A    between atoms: _343  and  _344
REMARK  132  A    between atoms: _353  and  _355
REMARK  133  A    between atoms: _355  and  _356
REMARK  134  A    between atoms: _355  and  _358
REMARK  135  A    between atoms: _358  and  _359
REMARK  136  A    between atoms: _359  and  _360
REMARK  137  A    between atoms: _360  and  _361
REMARK  138  A    between atoms: _361  and  _362
REMARK  139  A    between atoms: _366  and  _368
REMARK  140  A    between atoms: _368  and  _369
REMARK  141  A    between atoms: _368  and  _371
REMARK  142  A    between atoms: _371  and  _372
REMARK  143  A    between atoms: _372  and  _373
REMARK  144  A    between atoms: _373  and  _374
REMARK  145  A    between atoms: _374  and  _375
REMARK  146  A    between atoms: _379  and  _381
REMARK  147  A    between atoms: _381  and  _382
REMARK  148  A    between atoms: _381  and  _384
REMARK  149  A    between atoms: _384  and  _385
REMARK  150  A    between atoms: _385  and  _386
REMARK  151  A    between atoms: _391  and  _393
REMARK  152  A    between atoms: _393  and  _394
REMARK  153  A    between atoms: _393  and  _396
REMARK  154  A    between atoms: _399  and  _401
REMARK  155  A    between atoms: _401  and  _402
REMARK  156  A    between atoms: _401  and  _404
REMARK  157  A    between atoms: _408  and  _409
REMARK                            x       y       z     vdW  Elec       q    Type
REMARK                         _______ _______ _______ _____ _____    ______ ____
ROOT
ATOM      1  CB  GLN A   1     -46.060 -57.990  49.327  0.00  0.00    +0.035 C 
ENDROOT
BRANCH   1   2
ATOM      2  CA  GLN A   1     -46.570 -57.167  48.121  0.00  0.00    +0.134 C 
BRANCH   2   3
ATOM      3  N   GLN A   1     -46.829 -58.032  46.977  0.00  0.00    -0.239 NA
ATOM      4  H   GLN A   1     -46.026 -58.487  46.499  0.00  0.00    +0.142 HD
ENDBRANCH   2   3
BRANCH   2   5
ATOM      5  C   GLN A   1     -45.555 -56.056  47.751  0.00  0.00    +0.224 C 
ATOM      6  O   GLN A   1     -44.678 -56.275  46.905  0.00  0.00    -0.287 OA
ENDBRANCH   2   5
ENDBRANCH   1   2
BRANCH   1   7
ATOM      7  CG  GLN A   1     -45.825 -57.210  50.602  0.00  0.00    +0.087 C 
BRANCH   7   8
ATOM      8  CD  GLN A   1     -45.687 -58.094  51.841  0.00  0.00    +0.219 C 
ATOM      9  NE2 GLN A   1     -45.994 -57.531  53.017  0.00  0.00    -0.329 N 
ATOM     10 HE21 GLN A   1     -45.917 -58.084  53.894  0.00  0.00    +0.145 HD
ATOM     11 HE22 GLN A   1     -46.309 -56.541  53.053  0.00  0.00    +0.145 HD
ATOM     12  OE1 GLN A   1     -45.309 -59.264  51.746  0.00  0.00    -0.275 OA
ENDBRANCH   7   8
ENDBRANCH   1   7
TORSDOF 5
REMARK  Name = ../refined-set-2016/2iw4/2iw4_pocket.pdb
REMARK  157 active torsions:
REMARK  status: ('A' for Active; 'I' for Inactive)
REMARK    1  A    between atoms: _1  and  _3
REMARK    2  A    between atoms: _14  and  _17
REMARK    3  A    between atoms: _17  and  _18
REMARK    4  A    between atoms: _18  and  _19
REMARK    5  A    between atoms: _26  and  _29
REMARK    6  A    between atoms: _29  and  _30
REMARK    7  A    between atoms: _53  and  _56
REMARK    8  A    between atoms: _56  and  _57
REMARK    9  A    between atoms: _62  and  _63
REMARK   10  A    between atoms: _69  and  _71
REMARK   11  A    between atoms: _71  and  _72
REMARK   12  A    between atoms: _71  and  _74
REMARK   13  A    between atoms: _74  and  _75
REMARK   14  A    between atoms: _78  and  _80
REMARK   15  A    between atoms: _80  and  _81
REMARK   16  A    between atoms: _80  and  _83
REMARK   17  A    between atoms: _86  and  _88
REMARK   18  A    between atoms: _88  and  _89
REMARK   19  A    between atoms: _88  and  _91
REMARK   20  A    between atoms: _91  and  _92
REMARK   21  A    between atoms: _95  and  _97
REMARK   22  A    between atoms: _97  and  _98
REMARK   23  A    between atoms: _97  and  _100
REMARK   24  A    between atoms: _100  and  _101
REMARK   25  A    between atoms: _106  and  _108
REMARK   26  A    between atoms: _108  and  _109
REMARK   27  A    between atoms: _108  and  _111
REMARK   28  A    between atoms: _111  and  _112
REMARK   29  A    between atoms: _112  and  _113
REMARK   30  A    between atoms: _118  and  _120
REMARK   31  A    between atoms: _120  and  _121
REMARK   32  A    between atoms: _120  and  _123
REMARK   33  A    between atoms: _123  and  _124
REMARK   34  A    between atoms: _127  and  _129
REMARK   35  A    between atoms: _129  and  _130
REMARK   36  A    between atoms: _129  and  _132
REMARK   37  A    between atoms: _132  and  _133
REMARK   38  A    between atoms: _137  and  FE_415
REMARK   39  A    between atoms: _138  and  _140
REMARK   40  A    between atoms: _140  and  _141
REMARK   41  A    between atoms: _140  and  _143
REMARK   42  A    between atoms: _143  and  _144
REMARK   43  A    between atoms: _144  and  _145
REMARK   44  A    between atoms: _150  and  _152
REMARK   45  A    between atoms: _152  and  _153
REMARK   46  A    between atoms: _152  and  _155
REMARK   47  A    between atoms: _155  and  _156
REMARK   48  A    between atoms: _156  and  _157
REMARK   49  A    between atoms: _157  and  _158
REMARK   50  A    between atoms: _167  and  _169
REMARK   51  A    between atoms: _169  and  _170
REMARK   52  A    between atoms: _169  and  _172
REMARK   53  A    between atoms: _175  and  _177
REMARK   54  A    between atoms: _177  and  _178
REMARK   55  A    between atoms: _180  and  _182
REMARK   56  A    between atoms: _182  and  _183
REMARK   57  A    between atoms: _182  and  _185
REMARK   58  A    between atoms: _187  and  _189
REMARK   59  A    between atoms: _189  and  _190
REMARK   60  A    between atoms: _189  and  _192
REMARK   61  A    between atoms: _192  and  _193
REMARK   62  A    between atoms: _196  and  _198
REMARK   63  A    between atoms: _198  and  _199
REMARK   64  A    between atoms: _202  and  _204
REMARK   65  A    between atoms: _204  and  _205
REMARK   66  A    between atoms: _208  and  _210
REMARK   67  A    between atoms: _210  and  _211
REMARK   68  A    between atoms: _210  and  _213
REMARK   69  A    between atoms: _213  and  _214
REMARK   70  A    between atoms: _216  and  _218
REMARK   71  A    between atoms: _218  and  _219
REMARK   72  A    between atoms: _218  and  _221
REMARK   73  A    between atoms: _221  and  _222
REMARK   74  A    between atoms: _222  and  _223
REMARK   75  A    between atoms: _222  and  _224
REMARK   76  A    between atoms: _224  and  FE_415
REMARK   77  A    between atoms: _225  and  _227
REMARK   78  A    between atoms: _227  and  _228
REMARK   79  A    between atoms: _227  and  _230
REMARK   80  A    between atoms: _230  and  _231
REMARK   81  A    between atoms: _233  and  _235
REMARK   82  A    between atoms: _235  and  _236
REMARK   83  A    between atoms: _235  and  _238
REMARK   84  A    between atoms: _238  and  _239
REMARK   85  A    between atoms: _242  and  _244
REMARK   86  A    between atoms: _244  and  _245
REMARK   87  A    between atoms: _244  and  _247
REMARK   88  A    between atoms: _247  and  _248
REMARK   89  A    between atoms: _250  and  _252
REMARK   90  A    between atoms: _252  and  _253
REMARK   91  A    between atoms: _252  and  _255
REMARK   92  A    between atoms: _255  and  _256
REMARK   93  A    between atoms: _259  and  _261
REMARK   94  A    between atoms: _261  and  _262
REMARK   95  A    between atoms: _261  and  _264
REMARK   96  A    between atoms: _264  and  _265
REMARK   97  A    between atoms: _268  and  _270
REMARK   98  A    between atoms: _270  and  _271
REMARK   99  A    between atoms: _274  and  _276
REMARK  100  A    between atoms: _276  and  _277
REMARK  101  A    between atoms: _276  and  _279
REMARK  102  A    between atoms: _279  and  _280
REMARK  103  A    between atoms: _280  and  _281
REMARK  104  A    between atoms: _281  and  _282
REMARK  105  A    between atoms: _282  and  _283
REMARK  106  A    between atoms: _287  and  _289
REMARK  107  A    between atoms: _289  and  _290
REMARK  108  A    between atoms: _289  and  _292
REMARK  109  A    between atoms: _292  and  _293
REMARK  110  A    between atoms: _299  and  _301
REMARK  111  A    between atoms: _301  and  _302
REMARK  112  A    between atoms: _301  and  _304
REMARK  113  A    between atoms: _304  and  _305
REMARK  114  A    between atoms: _308  and  _310
REMARK  115  A    between atoms: _310  and  _311
REMARK  116  A    between atoms: _310  and  _313
REMARK  117  A    between atoms: _313  and  _314
REMARK  118  A    between atoms: _314  and  _315
REMARK  119  A    between atoms: _320  and  _322
REMARK  120  A    between atoms: _322  and  _323
REMARK  121  A    between atoms: _322  and  _325
REMARK  122  A    between atoms: _328  and  _330
REMARK  123  A    between atoms: _330  and  _331
REMARK  124  A    between atoms: _330  and  _333
REMARK  125  A    between atoms: _333  and  _334
REMARK  126  A    between atoms: _336  and  _338
REMARK  127  A    between atoms: _338  and  _339
REMARK  128  A    between atoms: _338  and  _341
REMARK  129  A    between atoms: _341  and  _342
REMARK  130  A    between atoms: _342  and  _343
REMARK  131  A    between atoms: _343  and  _344
REMARK  132  A    between atoms: _353  and  _355
REMARK  133  A    between atoms: _355  and  _356
REMARK  134  A    between atoms: _355  and  _358
REMARK  135  A    between atoms: _358  and  _359
REMARK  136  A    between atoms: _359  and  _360
REMARK  137  A    between atoms: _360  and  _361
REMARK  138  A    between atoms: _361  and  _362
REMARK  139  A    between atoms: _366  and  _368
REMARK  140  A    between atoms: _368  and  _369
REMARK  141  A    between atoms: _368  and  _371
REMARK  142  A    between atoms: _371  and  _372
REMARK  143  A    between atoms: _372  and  _373
REMARK  144  A    between atoms: _373  and  _374
REMARK  145  A    between atoms: _374  and  _375
REMARK  146  A    between atoms: _379  and  _381
REMARK  147  A    between atoms: _381  and  _382
REMARK  148  A    between atoms: _381  and  _384
REMARK  149  A    between atoms: _384  and  _385
REMARK  150  A    between atoms: _385  and  _386
REMARK  151  A    between atoms: _391  and  _393
REMARK  152  A    between atoms: _393  and  _394
REMARK  153  A    between atoms: _393  and  _396
REMARK  154  A    between atoms: _399  and  _401
REMARK  155  A    between atoms: _401  and  _402
REMARK  156  A    between atoms: _401  and  _404
REMARK  157  A    between atoms: _408  and  _409
REMARK                            x       y       z     vdW  Elec       q    Type
REMARK                         _______ _______ _______ _____ _____    ______ ____
ROOT
ATOM      1  CA  LYS A   4     -47.344 -66.740  54.458  0.00  0.00    +0.149 C 
ENDROOT
BRANCH   1   2
ATOM      2  C   LYS A   4     -48.191 -67.026  55.683  0.00  0.00    +0.241 C 
ATOM      3  N   LYS A   5     -48.252 -66.081  56.632  0.00  0.00    -0.297 N 
ATOM      4  H   LYS A   5     -47.853 -65.142  56.432  0.00  0.00    +0.150 HD
ATOM      5  O   LYS A   4     -48.761 -68.111  55.780  0.00  0.00    -0.273 OA
BRANCH   3   6
ATOM      6  CA  LYS A   5     -48.857 -66.325  57.931  0.00  0.00    +0.149 C 
BRANCH   6   7
ATOM      7  C   LYS A   5     -50.193 -65.576  58.073  0.00  0.00    +0.241 C 
ATOM      8  O   LYS A   5     -51.132 -66.072  58.687  0.00  0.00    -0.273 OA
ATOM      9  N   GLN A   6     -50.288 -64.374  57.538  0.00  0.00    -0.297 N 
ATOM     10  H   GLN A   6     -49.545 -64.017  56.904  0.00  0.00    +0.150 HD
BRANCH   9  11
ATOM     11  CA  GLN A   6     -51.440 -63.562  57.847  0.00  0.00    +0.149 C 
BRANCH  11  12
ATOM     12  C   GLN A   6     -52.346 -63.361  56.662  0.00  0.00    +0.241 C 
ATOM     13  O   GLN A   6     -53.422 -62.773  56.801  0.00  0.00    -0.273 OA
ATOM     14  N   VAL A   7     -51.906 -63.794  55.484  0.00  0.00    -0.297 N 
ATOM     15  H   VAL A   7     -50.979 -64.262  55.423  0.00  0.00    +0.150 HD
BRANCH  14  16
ATOM     16  CA  VAL A   7     -52.710 -63.620  54.272  0.00  0.00    +0.149 C 
BRANCH  16  17
ATOM     17  C   VAL A   7     -53.175 -64.954  53.674  0.00  0.00    +0.241 C 
ATOM     18  O   VAL A   7     -54.381 -65.226  53.661  0.00  0.00    -0.273 OA
ATOM     19  N   VAL A   8     -52.241 -65.786  53.186  0.00  0.00    -0.298 N 
ATOM     20  H   VAL A   8     -51.236 -65.526  53.247  0.00  0.00    +0.150 HD
BRANCH  19  21
ATOM     21  CA  VAL A   8     -52.629 -67.064  52.565  0.00  0.00    +0.137 C 
BRANCH  21  22
ATOM     22  CB  VAL A   8     -51.424 -67.921  52.033  0.00  0.00    +0.026 C 
ATOM     23  CG2 VAL A   8     -51.907 -69.343  51.604  0.00  0.00    +0.002 C 
ATOM     24  CG1 VAL A   8     -50.714 -67.197  50.872  0.00  0.00    +0.002 C 
ENDBRANCH  21  22
BRANCH  21  25
ATOM     25  C   VAL A   8     -53.614 -67.911  53.390  0.00  0.00    +0.227 C 
ATOM     26  O   VAL A   8     -54.606 -68.346  52.826  0.00  0.00    -0.286 OA
ENDBRANCH  21  25
ENDBRANCH  19  21
ENDBRANCH  16  17
BRANCH  16  27
ATOM     27  CB  VAL A   7     -51.985 -62.783  53.188  0.00  0.00    +0.027 C 
ATOM     28  CG2 VAL A   7     -51.534 -61.401  53.761  0.00  0.00    +0.002 C 
ATOM     29  CG1 VAL A   7     -52.870 -62.617  51.949  0.00  0.00    +0.002 C 
ENDBRANCH  16  27
ENDBRANCH  14  16
ENDBRANCH  11  12
BRANCH  11  30
ATOM     30  CB  GLN A   6     -51.028 -62.201  58.380  0.00  0.00    +0.039 C 
BRANCH  30  31
ATOM     31  CG  GLN A   6     -50.280 -62.200  59.707  0.00  0.00    +0.087 C 
BRANCH  31  32
ATOM     32  CD  GLN A   6     -49.834 -60.784  60.068  0.00  0.00    +0.219 C 
ATOM     33  NE2 GLN A   6     -50.446 -60.202  61.117  0.00  0.00    -0.329 N 
ATOM     34 HE21 GLN A   6     -51.170 -60.724  61.652  0.00  0.00    +0.145 HD
ATOM     35 HE22 GLN A   6     -50.195 -59.231  61.392  0.00  0.00    +0.145 HD
ATOM     36  OE1 GLN A   6     -48.966 -60.212  59.395  0.00  0.00    -0.275 OA
ENDBRANCH  31  32
ENDBRANCH  30  31
ENDBRANCH  11  30
ENDBRANCH   9  11
ENDBRANCH   6   7
BRANCH   6  37
ATOM     37  CB  LYS A   5     -47.885 -65.910  59.051  0.00  0.00    +0.029 C 
BRANCH  37  38
ATOM     38  CG  LYS A   5     -48.492 -65.949  60.486  0.00  0.00    +0.000 C 
BRANCH  38  39
ATOM     39  CD  LYS A   5     -47.420 -65.847  61.558  0.00  0.00    -0.024 C 
BRANCH  39  40
ATOM     40  CE  LYS A   5     -47.978 -65.966  62.954  0.00  0.00    -0.086 C 
BRANCH  40  41
ATOM     41  NZ  LYS A   5     -47.675 -67.342  63.423  0.00  0.00    +0.380 N 
ATOM     42  HZ1 LYS A   5     -48.044 -67.468  64.387  0.00  0.00    -0.089 HD
ATOM     43  HZ2 LYS A   5     -46.645 -67.488  63.423  0.00  0.00    -0.089 HD
ATOM     44  HZ3 LYS A   5     -48.124 -68.031  62.786  0.00  0.00    -0.089 HD
ENDBRANCH  40  41
ENDBRANCH  39  40
ENDBRANCH  38  39
ENDBRANCH  37  38
ENDBRANCH   6  37
ENDBRANCH   3   6
ENDBRANCH   1   2
BRANCH   1  46
ATOM     45  C   ARG A   3     -48.406 -64.627  53.766  0.00  0.00    +0.241 C 
ATOM     46  N   LYS A   4     -47.301 -65.315  54.102  0.00  0.00    -0.297 N 
ATOM     47  H   LYS A   4     -46.385 -64.822  54.110  0.00  0.00    +0.150 HD
ATOM     48  O   ARG A   3     -49.553 -65.067  53.876  0.00  0.00    -0.273 OA
BRANCH  45  49
ATOM     49  CA  ARG A   3     -48.194 -63.198  53.277  0.00  0.00    +0.149 C 
BRANCH  49  52
ATOM     50  C   SER A   2     -47.793 -62.186  55.479  0.00  0.00    +0.243 C 
ATOM     51  O   SER A   2     -48.933 -62.458  55.868  0.00  0.00    -0.273 OA
ATOM     52  N   ARG A   3     -47.351 -62.491  54.251  0.00  0.00    -0.297 N 
ATOM     53  H   ARG A   3     -46.384 -62.220  53.980  0.00  0.00    +0.150 HD
BRANCH  50  54
ATOM     54  CA  SER A   2     -46.837 -61.443  56.425  0.00  0.00    +0.178 C 
BRANCH  54  56
ATOM     55  C   VAL A   1     -46.968 -59.002  56.408  0.00  0.00    +0.238 C 
ATOM     56  N   SER A   2     -47.380 -60.183  56.894  0.00  0.00    -0.295 N 
ATOM     57  H   SER A   2     -48.113 -60.195  57.632  0.00  0.00    +0.150 HD
ATOM     58  O   VAL A   1     -46.191 -58.905  55.456  0.00  0.00    -0.274 OA
BRANCH  55  59
ATOM     59  CA  VAL A   1     -47.473 -57.726  57.108  0.00  0.00    +0.145 C 
BRANCH  59  60
ATOM     60  CB  VAL A   1     -46.277 -57.124  57.926  0.00  0.00    +0.025 C 
ATOM     61  CG2 VAL A   1     -45.833 -58.022  59.053  0.00  0.00    +0.002 C 
ATOM     62  CG1 VAL A   1     -46.623 -55.767  58.459  0.00  0.00    +0.002 C 
ENDBRANCH  59  60
BRANCH  59  63
ATOM     63  N   VAL A   1     -48.684 -57.900  57.915  0.00  0.00    -0.238 NA
ATOM     64  H   VAL A   1     -48.703 -58.651  58.634  0.00  0.00    +0.142 HD
ENDBRANCH  59  63
ENDBRANCH  55  59
ENDBRANCH  54  56
BRANCH  54  65
ATOM     65  CB  SER A   2     -46.549 -62.342  57.622  0.00  0.00    +0.166 C 
BRANCH  65  66
ATOM     66  OG  SER A   2     -46.375 -63.664  57.119  0.00  0.00    -0.380 OA
ATOM     67  H   SER A   2     -45.618 -63.676  56.482  0.00  0.00    +0.211 HD
ENDBRANCH  65  66
ENDBRANCH  54  65
ENDBRANCH  50  54
ENDBRANCH  49  52
BRANCH  49  68
ATOM     68  CB  ARG A   3     -47.563 -63.228  51.868  0.00  0.00    +0.033 C 
BRANCH  68  69
ATOM     69  CG  ARG A   3     -48.448 -63.854  50.752  0.00  0.00    +0.045 C 
BRANCH  69  70
ATOM     70  CD  ARG A   3     -47.903 -63.467  49.335  0.00  0.00    +0.174 C 
BRANCH  70  71
ATOM     71  NE  ARG A   3     -46.435 -63.370  49.399  0.00  0.00    -0.265 N 
ATOM     72  HE  ARG A   3     -45.951 -63.930  50.129  0.00  0.00    +0.259 HD
ATOM     73  CZ  ARG A   3     -45.676 -62.622  48.597  0.00  0.00    +0.342 C 
ATOM     74  NH2 ARG A   3     -44.345 -62.593  48.752  0.00  0.00    -0.292 N 
ATOM     75 HH21 ARG A   3     -43.896 -63.157  49.502  0.00  0.00    +0.255 HD
ATOM     76 HH22 ARG A   3     -43.761 -62.007  48.122  0.00  0.00    +0.255 HD
ATOM     77  NH1 ARG A   3     -46.240 -61.922  47.618  0.00  0.00    -0.292 N 
ATOM     78 HH11 ARG A   3     -47.270 -61.959  47.479  0.00  0.00    +0.255 HD
ATOM     79 HH12 ARG A   3     -45.651 -61.338  46.991  0.00  0.00    +0.255 HD
ENDBRANCH  70  71
ENDBRANCH  69  70
ENDBRANCH  68  69
ENDBRANCH  49  68
ENDBRANCH  45  49
ENDBRANCH   1  46
BRANCH   1  80
ATOM     80  CB  LYS A   4     -45.941 -67.368  54.648  0.00  0.00    +0.029 C 
BRANCH  80  81
ATOM     81  CG  LYS A   4     -45.215 -66.925  55.924  0.00  0.00    +0.000 C 
BRANCH  81  82
ATOM     82  CD  LYS A   4     -43.887 -67.631  56.163  0.00  0.00    -0.024 C 
BRANCH  82  83
ATOM     83  CE  LYS A   4     -42.994 -67.576  54.925  0.00  0.00    -0.086 C 
BRANCH  83  84
ATOM     84  NZ  LYS A   4     -42.347 -66.241  54.680  0.00  0.00    +0.380 N 
ATOM     85  HZ1 LYS A   4     -41.751 -65.991  55.495  0.00  0.00    -0.089 HD
ATOM     86  HZ2 LYS A   4     -43.084 -65.518  54.554  0.00  0.00    -0.089 HD
ATOM     87  HZ3 LYS A   4     -41.761 -66.293  53.823  0.00  0.00    -0.089 HD
ENDBRANCH  83  84
ENDBRANCH  82  83
ENDBRANCH  81  82
ENDBRANCH  80  81
ENDBRANCH   1  80
TORSDOF 38
REMARK  Name = ../refined-set-2016/2iw4/2iw4_pocket.pdb
REMARK  157 active torsions:
REMARK  status: ('A' for Active; 'I' for Inactive)
REMARK    1  A    between atoms: _1  and  _3
REMARK    2  A    between atoms: _14  and  _17
REMARK    3  A    between atoms: _17  and  _18
REMARK    4  A    between atoms: _18  and  _19
REMARK    5  A    between atoms: _26  and  _29
REMARK    6  A    between atoms: _29  and  _30
REMARK    7  A    between atoms: _53  and  _56
REMARK    8  A    between atoms: _56  and  _57
REMARK    9  A    between atoms: _62  and  _63
REMARK   10  A    between atoms: _69  and  _71
REMARK   11  A    between atoms: _71  and  _72
REMARK   12  A    between atoms: _71  and  _74
REMARK   13  A    between atoms: _74  and  _75
REMARK   14  A    between atoms: _78  and  _80
REMARK   15  A    between atoms: _80  and  _81
REMARK   16  A    between atoms: _80  and  _83
REMARK   17  A    between atoms: _86  and  _88
REMARK   18  A    between atoms: _88  and  _89
REMARK   19  A    between atoms: _88  and  _91
REMARK   20  A    between atoms: _91  and  _92
REMARK   21  A    between atoms: _95  and  _97
REMARK   22  A    between atoms: _97  and  _98
REMARK   23  A    between atoms: _97  and  _100
REMARK   24  A    between atoms: _100  and  _101
REMARK   25  A    between atoms: _106  and  _108
REMARK   26  A    between atoms: _108  and  _109
REMARK   27  A    between atoms: _108  and  _111
REMARK   28  A    between atoms: _111  and  _112
REMARK   29  A    between atoms: _112  and  _113
REMARK   30  A    between atoms: _118  and  _120
REMARK   31  A    between atoms: _120  and  _121
REMARK   32  A    between atoms: _120  and  _123
REMARK   33  A    between atoms: _123  and  _124
REMARK   34  A    between atoms: _127  and  _129
REMARK   35  A    between atoms: _129  and  _130
REMARK   36  A    between atoms: _129  and  _132
REMARK   37  A    between atoms: _132  and  _133
REMARK   38  A    between atoms: _137  and  FE_415
REMARK   39  A    between atoms: _138  and  _140
REMARK   40  A    between atoms: _140  and  _141
REMARK   41  A    between atoms: _140  and  _143
REMARK   42  A    between atoms: _143  and  _144
REMARK   43  A    between atoms: _144  and  _145
REMARK   44  A    between atoms: _150  and  _152
REMARK   45  A    between atoms: _152  and  _153
REMARK   46  A    between atoms: _152  and  _155
REMARK   47  A    between atoms: _155  and  _156
REMARK   48  A    between atoms: _156  and  _157
REMARK   49  A    between atoms: _157  and  _158
REMARK   50  A    between atoms: _167  and  _169
REMARK   51  A    between atoms: _169  and  _170
REMARK   52  A    between atoms: _169  and  _172
REMARK   53  A    between atoms: _175  and  _177
REMARK   54  A    between atoms: _177  and  _178
REMARK   55  A    between atoms: _180  and  _182
REMARK   56  A    between atoms: _182  and  _183
REMARK   57  A    between atoms: _182  and  _185
REMARK   58  A    between atoms: _187  and  _189
REMARK   59  A    between atoms: _189  and  _190
REMARK   60  A    between atoms: _189  and  _192
REMARK   61  A    between atoms: _192  and  _193
REMARK   62  A    between atoms: _196  and  _198
REMARK   63  A    between atoms: _198  and  _199
REMARK   64  A    between atoms: _202  and  _204
REMARK   65  A    between atoms: _204  and  _205
REMARK   66  A    between atoms: _208  and  _210
REMARK   67  A    between atoms: _210  and  _211
REMARK   68  A    between atoms: _210  and  _213
REMARK   69  A    between atoms: _213  and  _214
REMARK   70  A    between atoms: _216  and  _218
REMARK   71  A    between atoms: _218  and  _219
REMARK   72  A    between atoms: _218  and  _221
REMARK   73  A    between atoms: _221  and  _222
REMARK   74  A    between atoms: _222  and  _223
REMARK   75  A    between atoms: _222  and  _224
REMARK   76  A    between atoms: _224  and  FE_415
REMARK   77  A    between atoms: _225  and  _227
REMARK   78  A    between atoms: _227  and  _228
REMARK   79  A    between atoms: _227  and  _230
REMARK   80  A    between atoms: _230  and  _231
REMARK   81  A    between atoms: _233  and  _235
REMARK   82  A    between atoms: _235  and  _236
REMARK   83  A    between atoms: _235  and  _238
REMARK   84  A    between atoms: _238  and  _239
REMARK   85  A    between atoms: _242  and  _244
REMARK   86  A    between atoms: _244  and  _245
REMARK   87  A    between atoms: _244  and  _247
REMARK   88  A    between atoms: _247  and  _248
REMARK   89  A    between atoms: _250  and  _252
REMARK   90  A    between atoms: _252  and  _253
REMARK   91  A    between atoms: _252  and  _255
REMARK   92  A    between atoms: _255  and  _256
REMARK   93  A    between atoms: _259  and  _261
REMARK   94  A    between atoms: _261  and  _262
REMARK   95  A    between atoms: _261  and  _264
REMARK   96  A    between atoms: _264  and  _265
REMARK   97  A    between atoms: _268  and  _270
REMARK   98  A    between atoms: _270  and  _271
REMARK   99  A    between atoms: _274  and  _276
REMARK  100  A    between atoms: _276  and  _277
REMARK  101  A    between atoms: _276  and  _279
REMARK  102  A    between atoms: _279  and  _280
REMARK  103  A    between atoms: _280  and  _281
REMARK  104  A    between atoms: _281  and  _282
REMARK  105  A    between atoms: _282  and  _283
REMARK  106  A    between atoms: _287  and  _289
REMARK  107  A    between atoms: _289  and  _290
REMARK  108  A    between atoms: _289  and  _292
REMARK  109  A    between atoms: _292  and  _293
REMARK  110  A    between atoms: _299  and  _301
REMARK  111  A    between atoms: _301  and  _302
REMARK  112  A    between atoms: _301  and  _304
REMARK  113  A    between atoms: _304  and  _305
REMARK  114  A    between atoms: _308  and  _310
REMARK  115  A    between atoms: _310  and  _311
REMARK  116  A    between atoms: _310  and  _313
REMARK  117  A    between atoms: _313  and  _314
REMARK  118  A    between atoms: _314  and  _315
REMARK  119  A    between atoms: _320  and  _322
REMARK  120  A    between atoms: _322  and  _323
REMARK  121  A    between atoms: _322  and  _325
REMARK  122  A    between atoms: _328  and  _330
REMARK  123  A    between atoms: _330  and  _331
REMARK  124  A    between atoms: _330  and  _333
REMARK  125  A    between atoms: _333  and  _334
REMARK  126  A    between atoms: _336  and  _338
REMARK  127  A    between atoms: _338  and  _339
REMARK  128  A    between atoms: _338  and  _341
REMARK  129  A    between atoms: _341  and  _342
REMARK  130  A    between atoms: _342  and  _343
REMARK  131  A    between atoms: _343  and  _344
REMARK  132  A    between atoms: _353  and  _355
REMARK  133  A    between atoms: _355  and  _356
REMARK  134  A    between atoms: _355  and  _358
REMARK  135  A    between atoms: _358  and  _359
REMARK  136  A    between atoms: _359  and  _360
REMARK  137  A    between atoms: _360  and  _361
REMARK  138  A    between atoms: _361  and  _362
REMARK  139  A    between atoms: _366  and  _368
REMARK  140  A    between atoms: _368  and  _369
REMARK  141  A    between atoms: _368  and  _371
REMARK  142  A    between atoms: _371  and  _372
REMARK  143  A    between atoms: _372  and  _373
REMARK  144  A    between atoms: _373  and  _374
REMARK  145  A    between atoms: _374  and  _375
REMARK  146  A    between atoms: _379  and  _381
REMARK  147  A    between atoms: _381  and  _382
REMARK  148  A    between atoms: _381  and  _384
REMARK  149  A    between atoms: _384  and  _385
REMARK  150  A    between atoms: _385  and  _386
REMARK  151  A    between atoms: _391  and  _393
REMARK  152  A    between atoms: _393  and  _394
REMARK  153  A    between atoms: _393  and  _396
REMARK  154  A    between atoms: _399  and  _401
REMARK  155  A    between atoms: _401  and  _402
REMARK  156  A    between atoms: _401  and  _404
REMARK  157  A    between atoms: _408  and  _409
REMARK                            x       y       z     vdW  Elec       q    Type
REMARK                         _______ _______ _______ _____ _____    ______ ____
ROOT
ATOM      1  N   PRO A   1     -47.394 -72.547  56.834  0.00  0.00    -0.212 NA
ATOM      2  CA  PRO A   1     -46.090 -73.197  57.053  0.00  0.00    +0.137 C 
ATOM      3  CB  PRO A   1     -45.210 -72.047  57.501  0.00  0.00    +0.027 C 
ATOM      4  CG  PRO A   1     -45.843 -70.778  56.881  0.00  0.00    +0.021 C 
ATOM      5  CD  PRO A   1     -47.320 -71.069  56.934  0.00  0.00    +0.089 C 
ENDROOT
BRANCH   2   6
ATOM      6  C   PRO A   1     -46.123 -74.336  58.113  0.00  0.00    +0.224 C 
ATOM      7  O   PRO A   1     -47.028 -74.390  58.963  0.00  0.00    -0.287 OA
ENDBRANCH   2   6
TORSDOF 1
REMARK  Name = ../refined-set-2016/2iw4/2iw4_pocket.pdb
REMARK  157 active torsions:
REMARK  status: ('A' for Active; 'I' for Inactive)
REMARK    1  A    between atoms: _1  and  _3
REMARK    2  A    between atoms: _14  and  _17
REMARK    3  A    between atoms: _17  and  _18
REMARK    4  A    between atoms: _18  and  _19
REMARK    5  A    between atoms: _26  and  _29
REMARK    6  A    between atoms: _29  and  _30
REMARK    7  A    between atoms: _53  and  _56
REMARK    8  A    between atoms: _56  and  _57
REMARK    9  A    between atoms: _62  and  _63
REMARK   10  A    between atoms: _69  and  _71
REMARK   11  A    between atoms: _71  and  _72
REMARK   12  A    between atoms: _71  and  _74
REMARK   13  A    between atoms: _74  and  _75
REMARK   14  A    between atoms: _78  and  _80
REMARK   15  A    between atoms: _80  and  _81
REMARK   16  A    between atoms: _80  and  _83
REMARK   17  A    between atoms: _86  and  _88
REMARK   18  A    between atoms: _88  and  _89
REMARK   19  A    between atoms: _88  and  _91
REMARK   20  A    between atoms: _91  and  _92
REMARK   21  A    between atoms: _95  and  _97
REMARK   22  A    between atoms: _97  and  _98
REMARK   23  A    between atoms: _97  and  _100
REMARK   24  A    between atoms: _100  and  _101
REMARK   25  A    between atoms: _106  and  _108
REMARK   26  A    between atoms: _108  and  _109
REMARK   27  A    between atoms: _108  and  _111
REMARK   28  A    between atoms: _111  and  _112
REMARK   29  A    between atoms: _112  and  _113
REMARK   30  A    between atoms: _118  and  _120
REMARK   31  A    between atoms: _120  and  _121
REMARK   32  A    between atoms: _120  and  _123
REMARK   33  A    between atoms: _123  and  _124
REMARK   34  A    between atoms: _127  and  _129
REMARK   35  A    between atoms: _129  and  _130
REMARK   36  A    between atoms: _129  and  _132
REMARK   37  A    between atoms: _132  and  _133
REMARK   38  A    between atoms: _137  and  FE_415
REMARK   39  A    between atoms: _138  and  _140
REMARK   40  A    between atoms: _140  and  _141
REMARK   41  A    between atoms: _140  and  _143
REMARK   42  A    between atoms: _143  and  _144
REMARK   43  A    between atoms: _144  and  _145
REMARK   44  A    between atoms: _150  and  _152
REMARK   45  A    between atoms: _152  and  _153
REMARK   46  A    between atoms: _152  and  _155
REMARK   47  A    between atoms: _155  and  _156
REMARK   48  A    between atoms: _156  and  _157
REMARK   49  A    between atoms: _157  and  _158
REMARK   50  A    between atoms: _167  and  _169
REMARK   51  A    between atoms: _169  and  _170
REMARK   52  A    between atoms: _169  and  _172
REMARK   53  A    between atoms: _175  and  _177
REMARK   54  A    between atoms: _177  and  _178
REMARK   55  A    between atoms: _180  and  _182
REMARK   56  A    between atoms: _182  and  _183
REMARK   57  A    between atoms: _182  and  _185
REMARK   58  A    between atoms: _187  and  _189
REMARK   59  A    between atoms: _189  and  _190
REMARK   60  A    between atoms: _189  and  _192
REMARK   61  A    between atoms: _192  and  _193
REMARK   62  A    between atoms: _196  and  _198
REMARK   63  A    between atoms: _198  and  _199
REMARK   64  A    between atoms: _202  and  _204
REMARK   65  A    between atoms: _204  and  _205
REMARK   66  A    between atoms: _208  and  _210
REMARK   67  A    between atoms: _210  and  _211
REMARK   68  A    between atoms: _210  and  _213
REMARK   69  A    between atoms: _213  and  _214
REMARK   70  A    between atoms: _216  and  _218
REMARK   71  A    between atoms: _218  and  _219
REMARK   72  A    between atoms: _218  and  _221
REMARK   73  A    between atoms: _221  and  _222
REMARK   74  A    between atoms: _222  and  _223
REMARK   75  A    between atoms: _222  and  _224
REMARK   76  A    between atoms: _224  and  FE_415
REMARK   77  A    between atoms: _225  and  _227
REMARK   78  A    between atoms: _227  and  _228
REMARK   79  A    between atoms: _227  and  _230
REMARK   80  A    between atoms: _230  and  _231
REMARK   81  A    between atoms: _233  and  _235
REMARK   82  A    between atoms: _235  and  _236
REMARK   83  A    between atoms: _235  and  _238
REMARK   84  A    between atoms: _238  and  _239
REMARK   85  A    between atoms: _242  and  _244
REMARK   86  A    between atoms: _244  and  _245
REMARK   87  A    between atoms: _244  and  _247
REMARK   88  A    between atoms: _247  and  _248
REMARK   89  A    between atoms: _250  and  _252
REMARK   90  A    between atoms: _252  and  _253
REMARK   91  A    between atoms: _252  and  _255
REMARK   92  A    between atoms: _255  and  _256
REMARK   93  A    between atoms: _259  and  _261
REMARK   94  A    between atoms: _261  and  _262
REMARK   95  A    between atoms: _261  and  _264
REMARK   96  A    between atoms: _264  and  _265
REMARK   97  A    between atoms: _268  and  _270
REMARK   98  A    between atoms: _270  and  _271
REMARK   99  A    between atoms: _274  and  _276
REMARK  100  A    between atoms: _276  and  _277
REMARK  101  A    between atoms: _276  and  _279
REMARK  102  A    between atoms: _279  and  _280
REMARK  103  A    between atoms: _280  and  _281
REMARK  104  A    between atoms: _281  and  _282
REMARK  105  A    between atoms: _282  and  _283
REMARK  106  A    between atoms: _287  and  _289
REMARK  107  A    between atoms: _289  and  _290
REMARK  108  A    between atoms: _289  and  _292
REMARK  109  A    between atoms: _292  and  _293
REMARK  110  A    between atoms: _299  and  _301
REMARK  111  A    between atoms: _301  and  _302
REMARK  112  A    between atoms: _301  and  _304
REMARK  113  A    between atoms: _304  and  _305
REMARK  114  A    between atoms: _308  and  _310
REMARK  115  A    between atoms: _310  and  _311
REMARK  116  A    between atoms: _310  and  _313
REMARK  117  A    between atoms: _313  and  _314
REMARK  118  A    between atoms: _314  and  _315
REMARK  119  A    between atoms: _320  and  _322
REMARK  120  A    between atoms: _322  and  _323
REMARK  121  A    between atoms: _322  and  _325
REMARK  122  A    between atoms: _328  and  _330
REMARK  123  A    between atoms: _330  and  _331
REMARK  124  A    between atoms: _330  and  _333
REMARK  125  A    between atoms: _333  and  _334
REMARK  126  A    between atoms: _336  and  _338
REMARK  127  A    between atoms: _338  and  _339
REMARK  128  A    between atoms: _338  and  _341
REMARK  129  A    between atoms: _341  and  _342
REMARK  130  A    between atoms: _342  and  _343
REMARK  131  A    between atoms: _343  and  _344
REMARK  132  A    between atoms: _353  and  _355
REMARK  133  A    between atoms: _355  and  _356
REMARK  134  A    between atoms: _355  and  _358
REMARK  135  A    between atoms: _358  and  _359
REMARK  136  A    between atoms: _359  and  _360
REMARK  137  A    between atoms: _360  and  _361
REMARK  138  A    between atoms: _361  and  _362
REMARK  139  A    between atoms: _366  and  _368
REMARK  140  A    between atoms: _368  and  _369
REMARK  141  A    between atoms: _368  and  _371
REMARK  142  A    between atoms: _371  and  _372
REMARK  143  A    between atoms: _372  and  _373
REMARK  144  A    between atoms: _373  and  _374
REMARK  145  A    between atoms: _374  and  _375
REMARK  146  A    between atoms: _379  and  _381
REMARK  147  A    between atoms: _381  and  _382
REMARK  148  A    between atoms: _381  and  _384
REMARK  149  A    between atoms: _384  and  _385
REMARK  150  A    between atoms: _385  and  _386
REMARK  151  A    between atoms: _391  and  _393
REMARK  152  A    between atoms: _393  and  _394
REMARK  153  A    between atoms: _393  and  _396
REMARK  154  A    between atoms: _399  and  _401
REMARK  155  A    between atoms: _401  and  _402
REMARK  156  A    between atoms: _401  and  _404
REMARK  157  A    between atoms: _408  and  _409
REMARK                            x       y       z     vdW  Elec       q    Type
REMARK                         _______ _______ _______ _____ _____    ______ ____
ROOT
ATOM      1 FE   UNL     1     -38.863 -65.419  49.504  0.00  0.00    +0.000 Fe
ENDROOT
TORSDOF 0
REMARK  Name = ../refined-set-2016/2iw4/2iw4_pocket.pdb
REMARK  157 active torsions:
REMARK  status: ('A' for Active; 'I' for Inactive)
REMARK    1  A    between atoms: _1  and  _3
REMARK    2  A    between atoms: _14  and  _17
REMARK    3  A    between atoms: _17  and  _18
REMARK    4  A    between atoms: _18  and  _19
REMARK    5  A    between atoms: _26  and  _29
REMARK    6  A    between atoms: _29  and  _30
REMARK    7  A    between atoms: _53  and  _56
REMARK    8  A    between atoms: _56  and  _57
REMARK    9  A    between atoms: _62  and  _63
REMARK   10  A    between atoms: _69  and  _71
REMARK   11  A    between atoms: _71  and  _72
REMARK   12  A    between atoms: _71  and  _74
REMARK   13  A    between atoms: _74  and  _75
REMARK   14  A    between atoms: _78  and  _80
REMARK   15  A    between atoms: _80  and  _81
REMARK   16  A    between atoms: _80  and  _83
REMARK   17  A    between atoms: _86  and  _88
REMARK   18  A    between atoms: _88  and  _89
REMARK   19  A    between atoms: _88  and  _91
REMARK   20  A    between atoms: _91  and  _92
REMARK   21  A    between atoms: _95  and  _97
REMARK   22  A    between atoms: _97  and  _98
REMARK   23  A    between atoms: _97  and  _100
REMARK   24  A    between atoms: _100  and  _101
REMARK   25  A    between atoms: _106  and  _108
REMARK   26  A    between atoms: _108  and  _109
REMARK   27  A    between atoms: _108  and  _111
REMARK   28  A    between atoms: _111  and  _112
REMARK   29  A    between atoms: _112  and  _113
REMARK   30  A    between atoms: _118  and  _120
REMARK   31  A    between atoms: _120  and  _121
REMARK   32  A    between atoms: _120  and  _123
REMARK   33  A    between atoms: _123  and  _124
REMARK   34  A    between atoms: _127  and  _129
REMARK   35  A    between atoms: _129  and  _130
REMARK   36  A    between atoms: _129  and  _132
REMARK   37  A    between atoms: _132  and  _133
REMARK   38  A    between atoms: _137  and  FE_415
REMARK   39  A    between atoms: _138  and  _140
REMARK   40  A    between atoms: _140  and  _141
REMARK   41  A    between atoms: _140  and  _143
REMARK   42  A    between atoms: _143  and  _144
REMARK   43  A    between atoms: _144  and  _145
REMARK   44  A    between atoms: _150  and  _152
REMARK   45  A    between atoms: _152  and  _153
REMARK   46  A    between atoms: _152  and  _155
REMARK   47  A    between atoms: _155  and  _156
REMARK   48  A    between atoms: _156  and  _157
REMARK   49  A    between atoms: _157  and  _158
REMARK   50  A    between atoms: _167  and  _169
REMARK   51  A    between atoms: _169  and  _170
REMARK   52  A    between atoms: _169  and  _172
REMARK   53  A    between atoms: _175  and  _177
REMARK   54  A    between atoms: _177  and  _178
REMARK   55  A    between atoms: _180  and  _182
REMARK   56  A    between atoms: _182  and  _183
REMARK   57  A    between atoms: _182  and  _185
REMARK   58  A    between atoms: _187  and  _189
REMARK   59  A    between atoms: _189  and  _190
REMARK   60  A    between atoms: _189  and  _192
REMARK   61  A    between atoms: _192  and  _193
REMARK   62  A    between atoms: _196  and  _198
REMARK   63  A    between atoms: _198  and  _199
REMARK   64  A    between atoms: _202  and  _204
REMARK   65  A    between atoms: _204  and  _205
REMARK   66  A    between atoms: _208  and  _210
REMARK   67  A    between atoms: _210  and  _211
REMARK   68  A    between atoms: _210  and  _213
REMARK   69  A    between atoms: _213  and  _214
REMARK   70  A    between atoms: _216  and  _218
REMARK   71  A    between atoms: _218  and  _219
REMARK   72  A    between atoms: _218  and  _221
REMARK   73  A    between atoms: _221  and  _222
REMARK   74  A    between atoms: _222  and  _223
REMARK   75  A    between atoms: _222  and  _224
REMARK   76  A    between atoms: _224  and  FE_415
REMARK   77  A    between atoms: _225  and  _227
REMARK   78  A    between atoms: _227  and  _228
REMARK   79  A    between atoms: _227  and  _230
REMARK   80  A    between atoms: _230  and  _231
REMARK   81  A    between atoms: _233  and  _235
REMARK   82  A    between atoms: _235  and  _236
REMARK   83  A    between atoms: _235  and  _238
REMARK   84  A    between atoms: _238  and  _239
REMARK   85  A    between atoms: _242  and  _244
REMARK   86  A    between atoms: _244  and  _245
REMARK   87  A    between atoms: _244  and  _247
REMARK   88  A    between atoms: _247  and  _248
REMARK   89  A    between atoms: _250  and  _252
REMARK   90  A    between atoms: _252  and  _253
REMARK   91  A    between atoms: _252  and  _255
REMARK   92  A    between atoms: _255  and  _256
REMARK   93  A    between atoms: _259  and  _261
REMARK   94  A    between atoms: _261  and  _262
REMARK   95  A    between atoms: _261  and  _264
REMARK   96  A    between atoms: _264  and  _265
REMARK   97  A    between atoms: _268  and  _270
REMARK   98  A    between atoms: _270  and  _271
REMARK   99  A    between atoms: _274  and  _276
REMARK  100  A    between atoms: _276  and  _277
REMARK  101  A    between atoms: _276  and  _279
REMARK  102  A    between atoms: _279  and  _280
REMARK  103  A    between atoms: _280  and  _281
REMARK  104  A    between atoms: _281  and  _282
REMARK  105  A    between atoms: _282  and  _283
REMARK  106  A    between atoms: _287  and  _289
REMARK  107  A    between atoms: _289  and  _290
REMARK  108  A    between atoms: _289  and  _292
REMARK  109  A    between atoms: _292  and  _293
REMARK  110  A    between atoms: _299  and  _301
REMARK  111  A    between atoms: _301  and  _302
REMARK  112  A    between atoms: _301  and  _304
REMARK  113  A    between atoms: _304  and  _305
REMARK  114  A    between atoms: _308  and  _310
REMARK  115  A    between atoms: _310  and  _311
REMARK  116  A    between atoms: _310  and  _313
REMARK  117  A    between atoms: _313  and  _314
REMARK  118  A    between atoms: _314  and  _315
REMARK  119  A    between atoms: _320  and  _322
REMARK  120  A    between atoms: _322  and  _323
REMARK  121  A    between atoms: _322  and  _325
REMARK  122  A    between atoms: _328  and  _330
REMARK  123  A    between atoms: _330  and  _331
REMARK  124  A    between atoms: _330  and  _333
REMARK  125  A    between atoms: _333  and  _334
REMARK  126  A    between atoms: _336  and  _338
REMARK  127  A    between atoms: _338  and  _339
REMARK  128  A    between atoms: _338  and  _341
REMARK  129  A    between atoms: _341  and  _342
REMARK  130  A    between atoms: _342  and  _343
REMARK  131  A    between atoms: _343  and  _344
REMARK  132  A    between atoms: _353  and  _355
REMARK  133  A    between atoms: _355  and  _356
REMARK  134  A    between atoms: _355  and  _358
REMARK  135  A    between atoms: _358  and  _359
REMARK  136  A    between atoms: _359  and  _360
REMARK  137  A    between atoms: _360  and  _361
REMARK  138  A    between atoms: _361  and  _362
REMARK  139  A    between atoms: _366  and  _368
REMARK  140  A    between atoms: _368  and  _369
REMARK  141  A    between atoms: _368  and  _371
REMARK  142  A    between atoms: _371  and  _372
REMARK  143  A    between atoms: _372  and  _373
REMARK  144  A    between atoms: _373  and  _374
REMARK  145  A    between atoms: _374  and  _375
REMARK  146  A    between atoms: _379  and  _381
REMARK  147  A    between atoms: _381  and  _382
REMARK  148  A    between atoms: _381  and  _384
REMARK  149  A    between atoms: _384  and  _385
REMARK  150  A    between atoms: _385  and  _386
REMARK  151  A    between atoms: _391  and  _393
REMARK  152  A    between atoms: _393  and  _394
REMARK  153  A    between atoms: _393  and  _396
REMARK  154  A    between atoms: _399  and  _401
REMARK  155  A    between atoms: _401  and  _402
REMARK  156  A    between atoms: _401  and  _404
REMARK  157  A    between atoms: _408  and  _409
REMARK                            x       y       z     vdW  Elec       q    Type
REMARK                         _______ _______ _______ _____ _____    ______ ____
ROOT
ATOM      1 MG   UNL     1     -41.820 -62.095  51.514  0.00  0.00    +0.000 Mg
ATOM      2  O   UNL     1     -42.222 -61.485  53.352  0.00  0.00    +0.000 OA
ATOM      3  O   UNL     1     -41.571 -62.227  49.558  0.00  0.00    +0.000 OA
ENDROOT
TORSDOF 0
REMARK  Name = ../refined-set-2016/2iw4/2iw4_pocket.pdb
REMARK  157 active torsions:
REMARK  status: ('A' for Active; 'I' for Inactive)
REMARK    1  A    between atoms: _1  and  _3
REMARK    2  A    between atoms: _14  and  _17
REMARK    3  A    between atoms: _17  and  _18
REMARK    4  A    between atoms: _18  and  _19
REMARK    5  A    between atoms: _26  and  _29
REMARK    6  A    between atoms: _29  and  _30
REMARK    7  A    between atoms: _53  and  _56
REMARK    8  A    between atoms: _56  and  _57
REMARK    9  A    between atoms: _62  and  _63
REMARK   10  A    between atoms: _69  and  _71
REMARK   11  A    between atoms: _71  and  _72
REMARK   12  A    between atoms: _71  and  _74
REMARK   13  A    between atoms: _74  and  _75
REMARK   14  A    between atoms: _78  and  _80
REMARK   15  A    between atoms: _80  and  _81
REMARK   16  A    between atoms: _80  and  _83
REMARK   17  A    between atoms: _86  and  _88
REMARK   18  A    between atoms: _88  and  _89
REMARK   19  A    between atoms: _88  and  _91
REMARK   20  A    between atoms: _91  and  _92
REMARK   21  A    between atoms: _95  and  _97
REMARK   22  A    between atoms: _97  and  _98
REMARK   23  A    between atoms: _97  and  _100
REMARK   24  A    between atoms: _100  and  _101
REMARK   25  A    between atoms: _106  and  _108
REMARK   26  A    between atoms: _108  and  _109
REMARK   27  A    between atoms: _108  and  _111
REMARK   28  A    between atoms: _111  and  _112
REMARK   29  A    between atoms: _112  and  _113
REMARK   30  A    between atoms: _118  and  _120
REMARK   31  A    between atoms: _120  and  _121
REMARK   32  A    between atoms: _120  and  _123
REMARK   33  A    between atoms: _123  and  _124
REMARK   34  A    between atoms: _127  and  _129
REMARK   35  A    between atoms: _129  and  _130
REMARK   36  A    between atoms: _129  and  _132
REMARK   37  A    between atoms: _132  and  _133
REMARK   38  A    between atoms: _137  and  FE_415
REMARK   39  A    between atoms: _138  and  _140
REMARK   40  A    between atoms: _140  and  _141
REMARK   41  A    between atoms: _140  and  _143
REMARK   42  A    between atoms: _143  and  _144
REMARK   43  A    between atoms: _144  and  _145
REMARK   44  A    between atoms: _150  and  _152
REMARK   45  A    between atoms: _152  and  _153
REMARK   46  A    between atoms: _152  and  _155
REMARK   47  A    between atoms: _155  and  _156
REMARK   48  A    between atoms: _156  and  _157
REMARK   49  A    between atoms: _157  and  _158
REMARK   50  A    between atoms: _167  and  _169
REMARK   51  A    between atoms: _169  and  _170
REMARK   52  A    between atoms: _169  and  _172
REMARK   53  A    between atoms: _175  and  _177
REMARK   54  A    between atoms: _177  and  _178
REMARK   55  A    between atoms: _180  and  _182
REMARK   56  A    between atoms: _182  and  _183
REMARK   57  A    between atoms: _182  and  _185
REMARK   58  A    between atoms: _187  and  _189
REMARK   59  A    between atoms: _189  and  _190
REMARK   60  A    between atoms: _189  and  _192
REMARK   61  A    between atoms: _192  and  _193
REMARK   62  A    between atoms: _196  and  _198
REMARK   63  A    between atoms: _198  and  _199
REMARK   64  A    between atoms: _202  and  _204
REMARK   65  A    between atoms: _204  and  _205
REMARK   66  A    between atoms: _208  and  _210
REMARK   67  A    between atoms: _210  and  _211
REMARK   68  A    between atoms: _210  and  _213
REMARK   69  A    between atoms: _213  and  _214
REMARK   70  A    between atoms: _216  and  _218
REMARK   71  A    between atoms: _218  and  _219
REMARK   72  A    between atoms: _218  and  _221
REMARK   73  A    between atoms: _221  and  _222
REMARK   74  A    between atoms: _222  and  _223
REMARK   75  A    between atoms: _222  and  _224
REMARK   76  A    between atoms: _224  and  FE_415
REMARK   77  A    between atoms: _225  and  _227
REMARK   78  A    between atoms: _227  and  _228
REMARK   79  A    between atoms: _227  and  _230
REMARK   80  A    between atoms: _230  and  _231
REMARK   81  A    between atoms: _233  and  _235
REMARK   82  A    between atoms: _235  and  _236
REMARK   83  A    between atoms: _235  and  _238
REMARK   84  A    between atoms: _238  and  _239
REMARK   85  A    between atoms: _242  and  _244
REMARK   86  A    between atoms: _244  and  _245
REMARK   87  A    between atoms: _244  and  _247
REMARK   88  A    between atoms: _247  and  _248
REMARK   89  A    between atoms: _250  and  _252
REMARK   90  A    between atoms: _252  and  _253
REMARK   91  A    between atoms: _252  and  _255
REMARK   92  A    between atoms: _255  and  _256
REMARK   93  A    between atoms: _259  and  _261
REMARK   94  A    between atoms: _261  and  _262
REMARK   95  A    between atoms: _261  and  _264
REMARK   96  A    between atoms: _264  and  _265
REMARK   97  A    between atoms: _268  and  _270
REMARK   98  A    between atoms: _270  and  _271
REMARK   99  A    between atoms: _274  and  _276
REMARK  100  A    between atoms: _276  and  _277
REMARK  101  A    between atoms: _276  and  _279
REMARK  102  A    between atoms: _279  and  _280
REMARK  103  A    between atoms: _280  and  _281
REMARK  104  A    between atoms: _281  and  _282
REMARK  105  A    between atoms: _282  and  _283
REMARK  106  A    between atoms: _287  and  _289
REMARK  107  A    between atoms: _289  and  _290
REMARK  108  A    between atoms: _289  and  _292
REMARK  109  A    between atoms: _292  and  _293
REMARK  110  A    between atoms: _299  and  _301
REMARK  111  A    between atoms: _301  and  _302
REMARK  112  A    between atoms: _301  and  _304
REMARK  113  A    between atoms: _304  and  _305
REMARK  114  A    between atoms: _308  and  _310
REMARK  115  A    between atoms: _310  and  _311
REMARK  116  A    between atoms: _310  and  _313
REMARK  117  A    between atoms: _313  and  _314
REMARK  118  A    between atoms: _314  and  _315
REMARK  119  A    between atoms: _320  and  _322
REMARK  120  A    between atoms: _322  and  _323
REMARK  121  A    between atoms: _322  and  _325
REMARK  122  A    between atoms: _328  and  _330
REMARK  123  A    between atoms: _330  and  _331
REMARK  124  A    between atoms: _330  and  _333
REMARK  125  A    between atoms: _333  and  _334
REMARK  126  A    between atoms: _336  and  _338
REMARK  127  A    between atoms: _338  and  _339
REMARK  128  A    between atoms: _338  and  _341
REMARK  129  A    between atoms: _341  and  _342
REMARK  130  A    between atoms: _342  and  _343
REMARK  131  A    between atoms: _343  and  _344
REMARK  132  A    between atoms: _353  and  _355
REMARK  133  A    between atoms: _355  and  _356
REMARK  134  A    between atoms: _355  and  _358
REMARK  135  A    between atoms: _358  and  _359
REMARK  136  A    between atoms: _359  and  _360
REMARK  137  A    between atoms: _360  and  _361
REMARK  138  A    between atoms: _361  and  _362
REMARK  139  A    between atoms: _366  and  _368
REMARK  140  A    between atoms: _368  and  _369
REMARK  141  A    between atoms: _368  and  _371
REMARK  142  A    between atoms: _371  and  _372
REMARK  143  A    between atoms: _372  and  _373
REMARK  144  A    between atoms: _373  and  _374
REMARK  145  A    between atoms: _374  and  _375
REMARK  146  A    between atoms: _379  and  _381
REMARK  147  A    between atoms: _381  and  _382
REMARK  148  A    between atoms: _381  and  _384
REMARK  149  A    between atoms: _384  and  _385
REMARK  150  A    between atoms: _385  and  _386
REMARK  151  A    between atoms: _391  and  _393
REMARK  152  A    between atoms: _393  and  _394
REMARK  153  A    between atoms: _393  and  _396
REMARK  154  A    between atoms: _399  and  _401
REMARK  155  A    between atoms: _401  and  _402
REMARK  156  A    between atoms: _401  and  _404
REMARK  157  A    between atoms: _408  and  _409
REMARK                            x       y       z     vdW  Elec       q    Type
REMARK                         _______ _______ _______ _____ _____    ______ ____
ROOT
ATOM      1 MN   UNL     1     -38.189 -66.435  52.678  0.00  0.00    +0.000 Mn
ENDROOT
TORSDOF 0
REMARK  Name = ../refined-set-2016/2iw4/2iw4_pocket.pdb
REMARK  157 active torsions:
REMARK  status: ('A' for Active; 'I' for Inactive)
REMARK    1  A    between atoms: _1  and  _3
REMARK    2  A    between atoms: _14  and  _17
REMARK    3  A    between atoms: _17  and  _18
REMARK    4  A    between atoms: _18  and  _19
REMARK    5  A    between atoms: _26  and  _29
REMARK    6  A    between atoms: _29  and  _30
REMARK    7  A    between atoms: _53  and  _56
REMARK    8  A    between atoms: _56  and  _57
REMARK    9  A    between atoms: _62  and  _63
REMARK   10  A    between atoms: _69  and  _71
REMARK   11  A    between atoms: _71  and  _72
REMARK   12  A    between atoms: _71  and  _74
REMARK   13  A    between atoms: _74  and  _75
REMARK   14  A    between atoms: _78  and  _80
REMARK   15  A    between atoms: _80  and  _81
REMARK   16  A    between atoms: _80  and  _83
REMARK   17  A    between atoms: _86  and  _88
REMARK   18  A    between atoms: _88  and  _89
REMARK   19  A    between atoms: _88  and  _91
REMARK   20  A    between atoms: _91  and  _92
REMARK   21  A    between atoms: _95  and  _97
REMARK   22  A    between atoms: _97  and  _98
REMARK   23  A    between atoms: _97  and  _100
REMARK   24  A    between atoms: _100  and  _101
REMARK   25  A    between atoms: _106  and  _108
REMARK   26  A    between atoms: _108  and  _109
REMARK   27  A    between atoms: _108  and  _111
REMARK   28  A    between atoms: _111  and  _112
REMARK   29  A    between atoms: _112  and  _113
REMARK   30  A    between atoms: _118  and  _120
REMARK   31  A    between atoms: _120  and  _121
REMARK   32  A    between atoms: _120  and  _123
REMARK   33  A    between atoms: _123  and  _124
REMARK   34  A    between atoms: _127  and  _129
REMARK   35  A    between atoms: _129  and  _130
REMARK   36  A    between atoms: _129  and  _132
REMARK   37  A    between atoms: _132  and  _133
REMARK   38  A    between atoms: _137  and  FE_415
REMARK   39  A    between atoms: _138  and  _140
REMARK   40  A    between atoms: _140  and  _141
REMARK   41  A    between atoms: _140  and  _143
REMARK   42  A    between atoms: _143  and  _144
REMARK   43  A    between atoms: _144  and  _145
REMARK   44  A    between atoms: _150  and  _152
REMARK   45  A    between atoms: _152  and  _153
REMARK   46  A    between atoms: _152  and  _155
REMARK   47  A    between atoms: _155  and  _156
REMARK   48  A    between atoms: _156  and  _157
REMARK   49  A    between atoms: _157  and  _158
REMARK   50  A    between atoms: _167  and  _169
REMARK   51  A    between atoms: _169  and  _170
REMARK   52  A    between atoms: _169  and  _172
REMARK   53  A    between atoms: _175  and  _177
REMARK   54  A    between atoms: _177  and  _178
REMARK   55  A    between atoms: _180  and  _182
REMARK   56  A    between atoms: _182  and  _183
REMARK   57  A    between atoms: _182  and  _185
REMARK   58  A    between atoms: _187  and  _189
REMARK   59  A    between atoms: _189  and  _190
REMARK   60  A    between atoms: _189  and  _192
REMARK   61  A    between atoms: _192  and  _193
REMARK   62  A    between atoms: _196  and  _198
REMARK   63  A    between atoms: _198  and  _199
REMARK   64  A    between atoms: _202  and  _204
REMARK   65  A    between atoms: _204  and  _205
REMARK   66  A    between atoms: _208  and  _210
REMARK   67  A    between atoms: _210  and  _211
REMARK   68  A    between atoms: _210  and  _213
REMARK   69  A    between atoms: _213  and  _214
REMARK   70  A    between atoms: _216  and  _218
REMARK   71  A    between atoms: _218  and  _219
REMARK   72  A    between atoms: _218  and  _221
REMARK   73  A    between atoms: _221  and  _222
REMARK   74  A    between atoms: _222  and  _223
REMARK   75  A    between atoms: _222  and  _224
REMARK   76  A    between atoms: _224  and  FE_415
REMARK   77  A    between atoms: _225  and  _227
REMARK   78  A    between atoms: _227  and  _228
REMARK   79  A    between atoms: _227  and  _230
REMARK   80  A    between atoms: _230  and  _231
REMARK   81  A    between atoms: _233  and  _235
REMARK   82  A    between atoms: _235  and  _236
REMARK   83  A    between atoms: _235  and  _238
REMARK   84  A    between atoms: _238  and  _239
REMARK   85  A    between atoms: _242  and  _244
REMARK   86  A    between atoms: _244  and  _245
REMARK   87  A    between atoms: _244  and  _247
REMARK   88  A    between atoms: _247  and  _248
REMARK   89  A    between atoms: _250  and  _252
REMARK   90  A    between atoms: _252  and  _253
REMARK   91  A    between atoms: _252  and  _255
REMARK   92  A    between atoms: _255  and  _256
REMARK   93  A    between atoms: _259  and  _261
REMARK   94  A    between atoms: _261  and  _262
REMARK   95  A    between atoms: _261  and  _264
REMARK   96  A    between atoms: _264  and  _265
REMARK   97  A    between atoms: _268  and  _270
REMARK   98  A    between atoms: _270  and  _271
REMARK   99  A    between atoms: _274  and  _276
REMARK  100  A    between atoms: _276  and  _277
REMARK  101  A    between atoms: _276  and  _279
REMARK  102  A    between atoms: _279  and  _280
REMARK  103  A    between atoms: _280  and  _281
REMARK  104  A    between atoms: _281  and  _282
REMARK  105  A    between atoms: _282  and  _283
REMARK  106  A    between atoms: _287  and  _289
REMARK  107  A    between atoms: _289  and  _290
REMARK  108  A    between atoms: _289  and  _292
REMARK  109  A    between atoms: _292  and  _293
REMARK  110  A    between atoms: _299  and  _301
REMARK  111  A    between atoms: _301  and  _302
REMARK  112  A    between atoms: _301  and  _304
REMARK  113  A    between atoms: _304  and  _305
REMARK  114  A    between atoms: _308  and  _310
REMARK  115  A    between atoms: _310  and  _311
REMARK  116  A    between atoms: _310  and  _313
REMARK  117  A    between atoms: _313  and  _314
REMARK  118  A    between atoms: _314  and  _315
REMARK  119  A    between atoms: _320  and  _322
REMARK  120  A    between atoms: _322  and  _323
REMARK  121  A    between atoms: _322  and  _325
REMARK  122  A    between atoms: _328  and  _330
REMARK  123  A    between atoms: _330  and  _331
REMARK  124  A    between atoms: _330  and  _333
REMARK  125  A    between atoms: _333  and  _334
REMARK  126  A    between atoms: _336  and  _338
REMARK  127  A    between atoms: _338  and  _339
REMARK  128  A    between atoms: _338  and  _341
REMARK  129  A    between atoms: _341  and  _342
REMARK  130  A    between atoms: _342  and  _343
REMARK  131  A    between atoms: _343  and  _344
REMARK  132  A    between atoms: _353  and  _355
REMARK  133  A    between atoms: _355  and  _356
REMARK  134  A    between atoms: _355  and  _358
REMARK  135  A    between atoms: _358  and  _359
REMARK  136  A    between atoms: _359  and  _360
REMARK  137  A    between atoms: _360  and  _361
REMARK  138  A    between atoms: _361  and  _362
REMARK  139  A    between atoms: _366  and  _368
REMARK  140  A    between atoms: _368  and  _369
REMARK  141  A    between atoms: _368  and  _371
REMARK  142  A    between atoms: _371  and  _372
REMARK  143  A    between atoms: _372  and  _373
REMARK  144  A    between atoms: _373  and  _374
REMARK  145  A    between atoms: _374  and  _375
REMARK  146  A    between atoms: _379  and  _381
REMARK  147  A    between atoms: _381  and  _382
REMARK  148  A    between atoms: _381  and  _384
REMARK  149  A    between atoms: _384  and  _385
REMARK  150  A    between atoms: _385  and  _386
REMARK  151  A    between atoms: _391  and  _393
REMARK  152  A    between atoms: _393  and  _394
REMARK  153  A    between atoms: _393  and  _396
REMARK  154  A    between atoms: _399  and  _401
REMARK  155  A    between atoms: _401  and  _402
REMARK  156  A    between atoms: _401  and  _404
REMARK  157  A    between atoms: _408  and  _409
REMARK                            x       y       z     vdW  Elec       q    Type
REMARK                         _______ _______ _______ _____ _____    ______ ____
ROOT
ATOM      1  O   HOH     1     -43.075 -65.756  42.714  0.00  0.00    +0.000 OA
ENDROOT
TORSDOF 0
REMARK  Name = ../refined-set-2016/2iw4/2iw4_pocket.pdb
REMARK  157 active torsions:
REMARK  status: ('A' for Active; 'I' for Inactive)
REMARK    1  A    between atoms: _1  and  _3
REMARK    2  A    between atoms: _14  and  _17
REMARK    3  A    between atoms: _17  and  _18
REMARK    4  A    between atoms: _18  and  _19
REMARK    5  A    between atoms: _26  and  _29
REMARK    6  A    between atoms: _29  and  _30
REMARK    7  A    between atoms: _53  and  _56
REMARK    8  A    between atoms: _56  and  _57
REMARK    9  A    between atoms: _62  and  _63
REMARK   10  A    between atoms: _69  and  _71
REMARK   11  A    between atoms: _71  and  _72
REMARK   12  A    between atoms: _71  and  _74
REMARK   13  A    between atoms: _74  and  _75
REMARK   14  A    between atoms: _78  and  _80
REMARK   15  A    between atoms: _80  and  _81
REMARK   16  A    between atoms: _80  and  _83
REMARK   17  A    between atoms: _86  and  _88
REMARK   18  A    between atoms: _88  and  _89
REMARK   19  A    between atoms: _88  and  _91
REMARK   20  A    between atoms: _91  and  _92
REMARK   21  A    between atoms: _95  and  _97
REMARK   22  A    between atoms: _97  and  _98
REMARK   23  A    between atoms: _97  and  _100
REMARK   24  A    between atoms: _100  and  _101
REMARK   25  A    between atoms: _106  and  _108
REMARK   26  A    between atoms: _108  and  _109
REMARK   27  A    between atoms: _108  and  _111
REMARK   28  A    between atoms: _111  and  _112
REMARK   29  A    between atoms: _112  and  _113
REMARK   30  A    between atoms: _118  and  _120
REMARK   31  A    between atoms: _120  and  _121
REMARK   32  A    between atoms: _120  and  _123
REMARK   33  A    between atoms: _123  and  _124
REMARK   34  A    between atoms: _127  and  _129
REMARK   35  A    between atoms: _129  and  _130
REMARK   36  A    between atoms: _129  and  _132
REMARK   37  A    between atoms: _132  and  _133
REMARK   38  A    between atoms: _137  and  FE_415
REMARK   39  A    between atoms: _138  and  _140
REMARK   40  A    between atoms: _140  and  _141
REMARK   41  A    between atoms: _140  and  _143
REMARK   42  A    between atoms: _143  and  _144
REMARK   43  A    between atoms: _144  and  _145
REMARK   44  A    between atoms: _150  and  _152
REMARK   45  A    between atoms: _152  and  _153
REMARK   46  A    between atoms: _152  and  _155
REMARK   47  A    between atoms: _155  and  _156
REMARK   48  A    between atoms: _156  and  _157
REMARK   49  A    between atoms: _157  and  _158
REMARK   50  A    between atoms: _167  and  _169
REMARK   51  A    between atoms: _169  and  _170
REMARK   52  A    between atoms: _169  and  _172
REMARK   53  A    between atoms: _175  and  _177
REMARK   54  A    between atoms: _177  and  _178
REMARK   55  A    between atoms: _180  and  _182
REMARK   56  A    between atoms: _182  and  _183
REMARK   57  A    between atoms: _182  and  _185
REMARK   58  A    between atoms: _187  and  _189
REMARK   59  A    between atoms: _189  and  _190
REMARK   60  A    between atoms: _189  and  _192
REMARK   61  A    between atoms: _192  and  _193
REMARK   62  A    between atoms: _196  and  _198
REMARK   63  A    between atoms: _198  and  _199
REMARK   64  A    between atoms: _202  and  _204
REMARK   65  A    between atoms: _204  and  _205
REMARK   66  A    between atoms: _208  and  _210
REMARK   67  A    between atoms: _210  and  _211
REMARK   68  A    between atoms: _210  and  _213
REMARK   69  A    between atoms: _213  and  _214
REMARK   70  A    between atoms: _216  and  _218
REMARK   71  A    between atoms: _218  and  _219
REMARK   72  A    between atoms: _218  and  _221
REMARK   73  A    between atoms: _221  and  _222
REMARK   74  A    between atoms: _222  and  _223
REMARK   75  A    between atoms: _222  and  _224
REMARK   76  A    between atoms: _224  and  FE_415
REMARK   77  A    between atoms: _225  and  _227
REMARK   78  A    between atoms: _227  and  _228
REMARK   79  A    between atoms: _227  and  _230
REMARK   80  A    between atoms: _230  and  _231
REMARK   81  A    between atoms: _233  and  _235
REMARK   82  A    between atoms: _235  and  _236
REMARK   83  A    between atoms: _235  and  _238
REMARK   84  A    between atoms: _238  and  _239
REMARK   85  A    between atoms: _242  and  _244
REMARK   86  A    between atoms: _244  and  _245
REMARK   87  A    between atoms: _244  and  _247
REMARK   88  A    between atoms: _247  and  _248
REMARK   89  A    between atoms: _250  and  _252
REMARK   90  A    between atoms: _252  and  _253
REMARK   91  A    between atoms: _252  and  _255
REMARK   92  A    between atoms: _255  and  _256
REMARK   93  A    between atoms: _259  and  _261
REMARK   94  A    between atoms: _261  and  _262
REMARK   95  A    between atoms: _261  and  _264
REMARK   96  A    between atoms: _264  and  _265
REMARK   97  A    between atoms: _268  and  _270
REMARK   98  A    between atoms: _270  and  _271
REMARK   99  A    between atoms: _274  and  _276
REMARK  100  A    between atoms: _276  and  _277
REMARK  101  A    between atoms: _276  and  _279
REMARK  102  A    between atoms: _279  and  _280
REMARK  103  A    between atoms: _280  and  _281
REMARK  104  A    between atoms: _281  and  _282
REMARK  105  A    between atoms: _282  and  _283
REMARK  106  A    between atoms: _287  and  _289
REMARK  107  A    between atoms: _289  and  _290
REMARK  108  A    between atoms: _289  and  _292
REMARK  109  A    between atoms: _292  and  _293
REMARK  110  A    between atoms: _299  and  _301
REMARK  111  A    between atoms: _301  and  _302
REMARK  112  A    between atoms: _301  and  _304
REMARK  113  A    between atoms: _304  and  _305
REMARK  114  A    between atoms: _308  and  _310
REMARK  115  A    between atoms: _310  and  _311
REMARK  116  A    between atoms: _310  and  _313
REMARK  117  A    between atoms: _313  and  _314
REMARK  118  A    between atoms: _314  and  _315
REMARK  119  A    between atoms: _320  and  _322
REMARK  120  A    between atoms: _322  and  _323
REMARK  121  A    between atoms: _322  and  _325
REMARK  122  A    between atoms: _328  and  _330
REMARK  123  A    between atoms: _330  and  _331
REMARK  124  A    between atoms: _330  and  _333
REMARK  125  A    between atoms: _333  and  _334
REMARK  126  A    between atoms: _336  and  _338
REMARK  127  A    between atoms: _338  and  _339
REMARK  128  A    between atoms: _338  and  _341
REMARK  129  A    between atoms: _341  and  _342
REMARK  130  A    between atoms: _342  and  _343
REMARK  131  A    between atoms: _343  and  _344
REMARK  132  A    between atoms: _353  and  _355
REMARK  133  A    between atoms: _355  and  _356
REMARK  134  A    between atoms: _355  and  _358
REMARK  135  A    between atoms: _358  and  _359
REMARK  136  A    between atoms: _359  and  _360
REMARK  137  A    between atoms: _360  and  _361
REMARK  138  A    between atoms: _361  and  _362
REMARK  139  A    between atoms: _366  and  _368
REMARK  140  A    between atoms: _368  and  _369
REMARK  141  A    between atoms: _368  and  _371
REMARK  142  A    between atoms: _371  and  _372
REMARK  143  A    between atoms: _372  and  _373
REMARK  144  A    between atoms: _373  and  _374
REMARK  145  A    between atoms: _374  and  _375
REMARK  146  A    between atoms: _379  and  _381
REMARK  147  A    between atoms: _381  and  _382
REMARK  148  A    between atoms: _381  and  _384
REMARK  149  A    between atoms: _384  and  _385
REMARK  150  A    between atoms: _385  and  _386
REMARK  151  A    between atoms: _391  and  _393
REMARK  152  A    between atoms: _393  and  _394
REMARK  153  A    between atoms: _393  and  _396
REMARK  154  A    between atoms: _399  and  _401
REMARK  155  A    between atoms: _401  and  _402
REMARK  156  A    between atoms: _401  and  _404
REMARK  157  A    between atoms: _408  and  _409
REMARK                            x       y       z     vdW  Elec       q    Type
REMARK                         _______ _______ _______ _____ _____    ______ ____
ROOT
ATOM      1  O   HOH     1     -39.143 -58.797  49.906  0.00  0.00    +0.000 OA
ENDROOT
TORSDOF 0
REMARK  Name = ../refined-set-2016/2iw4/2iw4_pocket.pdb
REMARK  157 active torsions:
REMARK  status: ('A' for Active; 'I' for Inactive)
REMARK    1  A    between atoms: _1  and  _3
REMARK    2  A    between atoms: _14  and  _17
REMARK    3  A    between atoms: _17  and  _18
REMARK    4  A    between atoms: _18  and  _19
REMARK    5  A    between atoms: _26  and  _29
REMARK    6  A    between atoms: _29  and  _30
REMARK    7  A    between atoms: _53  and  _56
REMARK    8  A    between atoms: _56  and  _57
REMARK    9  A    between atoms: _62  and  _63
REMARK   10  A    between atoms: _69  and  _71
REMARK   11  A    between atoms: _71  and  _72
REMARK   12  A    between atoms: _71  and  _74
REMARK   13  A    between atoms: _74  and  _75
REMARK   14  A    between atoms: _78  and  _80
REMARK   15  A    between atoms: _80  and  _81
REMARK   16  A    between atoms: _80  and  _83
REMARK   17  A    between atoms: _86  and  _88
REMARK   18  A    between atoms: _88  and  _89
REMARK   19  A    between atoms: _88  and  _91
REMARK   20  A    between atoms: _91  and  _92
REMARK   21  A    between atoms: _95  and  _97
REMARK   22  A    between atoms: _97  and  _98
REMARK   23  A    between atoms: _97  and  _100
REMARK   24  A    between atoms: _100  and  _101
REMARK   25  A    between atoms: _106  and  _108
REMARK   26  A    between atoms: _108  and  _109
REMARK   27  A    between atoms: _108  and  _111
REMARK   28  A    between atoms: _111  and  _112
REMARK   29  A    between atoms: _112  and  _113
REMARK   30  A    between atoms: _118  and  _120
REMARK   31  A    between atoms: _120  and  _121
REMARK   32  A    between atoms: _120  and  _123
REMARK   33  A    between atoms: _123  and  _124
REMARK   34  A    between atoms: _127  and  _129
REMARK   35  A    between atoms: _129  and  _130
REMARK   36  A    between atoms: _129  and  _132
REMARK   37  A    between atoms: _132  and  _133
REMARK   38  A    between atoms: _137  and  FE_415
REMARK   39  A    between atoms: _138  and  _140
REMARK   40  A    between atoms: _140  and  _141
REMARK   41  A    between atoms: _140  and  _143
REMARK   42  A    between atoms: _143  and  _144
REMARK   43  A    between atoms: _144  and  _145
REMARK   44  A    between atoms: _150  and  _152
REMARK   45  A    between atoms: _152  and  _153
REMARK   46  A    between atoms: _152  and  _155
REMARK   47  A    between atoms: _155  and  _156
REMARK   48  A    between atoms: _156  and  _157
REMARK   49  A    between atoms: _157  and  _158
REMARK   50  A    between atoms: _167  and  _169
REMARK   51  A    between atoms: _169  and  _170
REMARK   52  A    between atoms: _169  and  _172
REMARK   53  A    between atoms: _175  and  _177
REMARK   54  A    between atoms: _177  and  _178
REMARK   55  A    between atoms: _180  and  _182
REMARK   56  A    between atoms: _182  and  _183
REMARK   57  A    between atoms: _182  and  _185
REMARK   58  A    between atoms: _187  and  _189
REMARK   59  A    between atoms: _189  and  _190
REMARK   60  A    between atoms: _189  and  _192
REMARK   61  A    between atoms: _192  and  _193
REMARK   62  A    between atoms: _196  and  _198
REMARK   63  A    between atoms: _198  and  _199
REMARK   64  A    between atoms: _202  and  _204
REMARK   65  A    between atoms: _204  and  _205
REMARK   66  A    between atoms: _208  and  _210
REMARK   67  A    between atoms: _210  and  _211
REMARK   68  A    between atoms: _210  and  _213
REMARK   69  A    between atoms: _213  and  _214
REMARK   70  A    between atoms: _216  and  _218
REMARK   71  A    between atoms: _218  and  _219
REMARK   72  A    between atoms: _218  and  _221
REMARK   73  A    between atoms: _221  and  _222
REMARK   74  A    between atoms: _222  and  _223
REMARK   75  A    between atoms: _222  and  _224
REMARK   76  A    between atoms: _224  and  FE_415
REMARK   77  A    between atoms: _225  and  _227
REMARK   78  A    between atoms: _227  and  _228
REMARK   79  A    between atoms: _227  and  _230
REMARK   80  A    between atoms: _230  and  _231
REMARK   81  A    between atoms: _233  and  _235
REMARK   82  A    between atoms: _235  and  _236
REMARK   83  A    between atoms: _235  and  _238
REMARK   84  A    between atoms: _238  and  _239
REMARK   85  A    between atoms: _242  and  _244
REMARK   86  A    between atoms: _244  and  _245
REMARK   87  A    between atoms: _244  and  _247
REMARK   88  A    between atoms: _247  and  _248
REMARK   89  A    between atoms: _250  and  _252
REMARK   90  A    between atoms: _252  and  _253
REMARK   91  A    between atoms: _252  and  _255
REMARK   92  A    between atoms: _255  and  _256
REMARK   93  A    between atoms: _259  and  _261
REMARK   94  A    between atoms: _261  and  _262
REMARK   95  A    between atoms: _261  and  _264
REMARK   96  A    between atoms: _264  and  _265
REMARK   97  A    between atoms: _268  and  _270
REMARK   98  A    between atoms: _270  and  _271
REMARK   99  A    between atoms: _274  and  _276
REMARK  100  A    between atoms: _276  and  _277
REMARK  101  A    between atoms: _276  and  _279
REMARK  102  A    between atoms: _279  and  _280
REMARK  103  A    between atoms: _280  and  _281
REMARK  104  A    between atoms: _281  and  _282
REMARK  105  A    between atoms: _282  and  _283
REMARK  106  A    between atoms: _287  and  _289
REMARK  107  A    between atoms: _289  and  _290
REMARK  108  A    between atoms: _289  and  _292
REMARK  109  A    between atoms: _292  and  _293
REMARK  110  A    between atoms: _299  and  _301
REMARK  111  A    between atoms: _301  and  _302
REMARK  112  A    between atoms: _301  and  _304
REMARK  113  A    between atoms: _304  and  _305
REMARK  114  A    between atoms: _308  and  _310
REMARK  115  A    between atoms: _310  and  _311
REMARK  116  A    between atoms: _310  and  _313
REMARK  117  A    between atoms: _313  and  _314
REMARK  118  A    between atoms: _314  and  _315
REMARK  119  A    between atoms: _320  and  _322
REMARK  120  A    between atoms: _322  and  _323
REMARK  121  A    between atoms: _322  and  _325
REMARK  122  A    between atoms: _328  and  _330
REMARK  123  A    between atoms: _330  and  _331
REMARK  124  A    between atoms: _330  and  _333
REMARK  125  A    between atoms: _333  and  _334
REMARK  126  A    between atoms: _336  and  _338
REMARK  127  A    between atoms: _338  and  _339
REMARK  128  A    between atoms: _338  and  _341
REMARK  129  A    between atoms: _341  and  _342
REMARK  130  A    between atoms: _342  and  _343
REMARK  131  A    between atoms: _343  and  _344
REMARK  132  A    between atoms: _353  and  _355
REMARK  133  A    between atoms: _355  and  _356
REMARK  134  A    between atoms: _355  and  _358
REMARK  135  A    between atoms: _358  and  _359
REMARK  136  A    between atoms: _359  and  _360
REMARK  137  A    between atoms: _360  and  _361
REMARK  138  A    between atoms: _361  and  _362
REMARK  139  A    between atoms: _366  and  _368
REMARK  140  A    between atoms: _368  and  _369
REMARK  141  A    between atoms: _368  and  _371
REMARK  142  A    between atoms: _371  and  _372
REMARK  143  A    between atoms: _372  and  _373
REMARK  144  A    between atoms: _373  and  _374
REMARK  145  A    between atoms: _374  and  _375
REMARK  146  A    between atoms: _379  and  _381
REMARK  147  A    between atoms: _381  and  _382
REMARK  148  A    between atoms: _381  and  _384
REMARK  149  A    between atoms: _384  and  _385
REMARK  150  A    between atoms: _385  and  _386
REMARK  151  A    between atoms: _391  and  _393
REMARK  152  A    between atoms: _393  and  _394
REMARK  153  A    between atoms: _393  and  _396
REMARK  154  A    between atoms: _399  and  _401
REMARK  155  A    between atoms: _401  and  _402
REMARK  156  A    between atoms: _401  and  _404
REMARK  157  A    between atoms: _408  and  _409
REMARK                            x       y       z     vdW  Elec       q    Type
REMARK                         _______ _______ _______ _____ _____    ______ ____
ROOT
ATOM      1  O   HOH     1     -44.490 -68.613  59.653  0.00  0.00    +0.000 OA
ENDROOT
TORSDOF 0
REMARK  Name = ../refined-set-2016/2iw4/2iw4_pocket.pdb
REMARK  157 active torsions:
REMARK  status: ('A' for Active; 'I' for Inactive)
REMARK    1  A    between atoms: _1  and  _3
REMARK    2  A    between atoms: _14  and  _17
REMARK    3  A    between atoms: _17  and  _18
REMARK    4  A    between atoms: _18  and  _19
REMARK    5  A    between atoms: _26  and  _29
REMARK    6  A    between atoms: _29  and  _30
REMARK    7  A    between atoms: _53  and  _56
REMARK    8  A    between atoms: _56  and  _57
REMARK    9  A    between atoms: _62  and  _63
REMARK   10  A    between atoms: _69  and  _71
REMARK   11  A    between atoms: _71  and  _72
REMARK   12  A    between atoms: _71  and  _74
REMARK   13  A    between atoms: _74  and  _75
REMARK   14  A    between atoms: _78  and  _80
REMARK   15  A    between atoms: _80  and  _81
REMARK   16  A    between atoms: _80  and  _83
REMARK   17  A    between atoms: _86  and  _88
REMARK   18  A    between atoms: _88  and  _89
REMARK   19  A    between atoms: _88  and  _91
REMARK   20  A    between atoms: _91  and  _92
REMARK   21  A    between atoms: _95  and  _97
REMARK   22  A    between atoms: _97  and  _98
REMARK   23  A    between atoms: _97  and  _100
REMARK   24  A    between atoms: _100  and  _101
REMARK   25  A    between atoms: _106  and  _108
REMARK   26  A    between atoms: _108  and  _109
REMARK   27  A    between atoms: _108  and  _111
REMARK   28  A    between atoms: _111  and  _112
REMARK   29  A    between atoms: _112  and  _113
REMARK   30  A    between atoms: _118  and  _120
REMARK   31  A    between atoms: _120  and  _121
REMARK   32  A    between atoms: _120  and  _123
REMARK   33  A    between atoms: _123  and  _124
REMARK   34  A    between atoms: _127  and  _129
REMARK   35  A    between atoms: _129  and  _130
REMARK   36  A    between atoms: _129  and  _132
REMARK   37  A    between atoms: _132  and  _133
REMARK   38  A    between atoms: _137  and  FE_415
REMARK   39  A    between atoms: _138  and  _140
REMARK   40  A    between atoms: _140  and  _141
REMARK   41  A    between atoms: _140  and  _143
REMARK   42  A    between atoms: _143  and  _144
REMARK   43  A    between atoms: _144  and  _145
REMARK   44  A    between atoms: _150  and  _152
REMARK   45  A    between atoms: _152  and  _153
REMARK   46  A    between atoms: _152  and  _155
REMARK   47  A    between atoms: _155  and  _156
REMARK   48  A    between atoms: _156  and  _157
REMARK   49  A    between atoms: _157  and  _158
REMARK   50  A    between atoms: _167  and  _169
REMARK   51  A    between atoms: _169  and  _170
REMARK   52  A    between atoms: _169  and  _172
REMARK   53  A    between atoms: _175  and  _177
REMARK   54  A    between atoms: _177  and  _178
REMARK   55  A    between atoms: _180  and  _182
REMARK   56  A    between atoms: _182  and  _183
REMARK   57  A    between atoms: _182  and  _185
REMARK   58  A    between atoms: _187  and  _189
REMARK   59  A    between atoms: _189  and  _190
REMARK   60  A    between atoms: _189  and  _192
REMARK   61  A    between atoms: _192  and  _193
REMARK   62  A    between atoms: _196  and  _198
REMARK   63  A    between atoms: _198  and  _199
REMARK   64  A    between atoms: _202  and  _204
REMARK   65  A    between atoms: _204  and  _205
REMARK   66  A    between atoms: _208  and  _210
REMARK   67  A    between atoms: _210  and  _211
REMARK   68  A    between atoms: _210  and  _213
REMARK   69  A    between atoms: _213  and  _214
REMARK   70  A    between atoms: _216  and  _218
REMARK   71  A    between atoms: _218  and  _219
REMARK   72  A    between atoms: _218  and  _221
REMARK   73  A    between atoms: _221  and  _222
REMARK   74  A    between atoms: _222  and  _223
REMARK   75  A    between atoms: _222  and  _224
REMARK   76  A    between atoms: _224  and  FE_415
REMARK   77  A    between atoms: _225  and  _227
REMARK   78  A    between atoms: _227  and  _228
REMARK   79  A    between atoms: _227  and  _230
REMARK   80  A    between atoms: _230  and  _231
REMARK   81  A    between atoms: _233  and  _235
REMARK   82  A    between atoms: _235  and  _236
REMARK   83  A    between atoms: _235  and  _238
REMARK   84  A    between atoms: _238  and  _239
REMARK   85  A    between atoms: _242  and  _244
REMARK   86  A    between atoms: _244  and  _245
REMARK   87  A    between atoms: _244  and  _247
REMARK   88  A    between atoms: _247  and  _248
REMARK   89  A    between atoms: _250  and  _252
REMARK   90  A    between atoms: _252  and  _253
REMARK   91  A    between atoms: _252  and  _255
REMARK   92  A    between atoms: _255  and  _256
REMARK   93  A    between atoms: _259  and  _261
REMARK   94  A    between atoms: _261  and  _262
REMARK   95  A    between atoms: _261  and  _264
REMARK   96  A    between atoms: _264  and  _265
REMARK   97  A    between atoms: _268  and  _270
REMARK   98  A    between atoms: _270  and  _271
REMARK   99  A    between atoms: _274  and  _276
REMARK  100  A    between atoms: _276  and  _277
REMARK  101  A    between atoms: _276  and  _279
REMARK  102  A    between atoms: _279  and  _280
REMARK  103  A    between atoms: _280  and  _281
REMARK  104  A    between atoms: _281  and  _282
REMARK  105  A    between atoms: _282  and  _283
REMARK  106  A    between atoms: _287  and  _289
REMARK  107  A    between atoms: _289  and  _290
REMARK  108  A    between atoms: _289  and  _292
REMARK  109  A    between atoms: _292  and  _293
REMARK  110  A    between atoms: _299  and  _301
REMARK  111  A    between atoms: _301  and  _302
REMARK  112  A    between atoms: _301  and  _304
REMARK  113  A    between atoms: _304  and  _305
REMARK  114  A    between atoms: _308  and  _310
REMARK  115  A    between atoms: _310  and  _311
REMARK  116  A    between atoms: _310  and  _313
REMARK  117  A    between atoms: _313  and  _314
REMARK  118  A    between atoms: _314  and  _315
REMARK  119  A    between atoms: _320  and  _322
REMARK  120  A    between atoms: _322  and  _323
REMARK  121  A    between atoms: _322  and  _325
REMARK  122  A    between atoms: _328  and  _330
REMARK  123  A    between atoms: _330  and  _331
REMARK  124  A    between atoms: _330  and  _333
REMARK  125  A    between atoms: _333  and  _334
REMARK  126  A    between atoms: _336  and  _338
REMARK  127  A    between atoms: _338  and  _339
REMARK  128  A    between atoms: _338  and  _341
REMARK  129  A    between atoms: _341  and  _342
REMARK  130  A    between atoms: _342  and  _343
REMARK  131  A    between atoms: _343  and  _344
REMARK  132  A    between atoms: _353  and  _355
REMARK  133  A    between atoms: _355  and  _356
REMARK  134  A    between atoms: _355  and  _358
REMARK  135  A    between atoms: _358  and  _359
REMARK  136  A    between atoms: _359  and  _360
REMARK  137  A    between atoms: _360  and  _361
REMARK  138  A    between atoms: _361  and  _362
REMARK  139  A    between atoms: _366  and  _368
REMARK  140  A    between atoms: _368  and  _369
REMARK  141  A    between atoms: _368  and  _371
REMARK  142  A    between atoms: _371  and  _372
REMARK  143  A    between atoms: _372  and  _373
REMARK  144  A    between atoms: _373  and  _374
REMARK  145  A    between atoms: _374  and  _375
REMARK  146  A    between atoms: _379  and  _381
REMARK  147  A    between atoms: _381  and  _382
REMARK  148  A    between atoms: _381  and  _384
REMARK  149  A    between atoms: _384  and  _385
REMARK  150  A    between atoms: _385  and  _386
REMARK  151  A    between atoms: _391  and  _393
REMARK  152  A    between atoms: _393  and  _394
REMARK  153  A    between atoms: _393  and  _396
REMARK  154  A    between atoms: _399  and  _401
REMARK  155  A    between atoms: _401  and  _402
REMARK  156  A    between atoms: _401  and  _404
REMARK  157  A    between atoms: _408  and  _409
REMARK                            x       y       z     vdW  Elec       q    Type
REMARK                         _______ _______ _______ _____ _____    ______ ____
ROOT
ATOM      1  O   HOH     1     -39.077 -58.824  46.438  0.00  0.00    +0.000 OA
ENDROOT
TORSDOF 0
REMARK  Name = ../refined-set-2016/2iw4/2iw4_pocket.pdb
REMARK  157 active torsions:
REMARK  status: ('A' for Active; 'I' for Inactive)
REMARK    1  A    between atoms: _1  and  _3
REMARK    2  A    between atoms: _14  and  _17
REMARK    3  A    between atoms: _17  and  _18
REMARK    4  A    between atoms: _18  and  _19
REMARK    5  A    between atoms: _26  and  _29
REMARK    6  A    between atoms: _29  and  _30
REMARK    7  A    between atoms: _53  and  _56
REMARK    8  A    between atoms: _56  and  _57
REMARK    9  A    between atoms: _62  and  _63
REMARK   10  A    between atoms: _69  and  _71
REMARK   11  A    between atoms: _71  and  _72
REMARK   12  A    between atoms: _71  and  _74
REMARK   13  A    between atoms: _74  and  _75
REMARK   14  A    between atoms: _78  and  _80
REMARK   15  A    between atoms: _80  and  _81
REMARK   16  A    between atoms: _80  and  _83
REMARK   17  A    between atoms: _86  and  _88
REMARK   18  A    between atoms: _88  and  _89
REMARK   19  A    between atoms: _88  and  _91
REMARK   20  A    between atoms: _91  and  _92
REMARK   21  A    between atoms: _95  and  _97
REMARK   22  A    between atoms: _97  and  _98
REMARK   23  A    between atoms: _97  and  _100
REMARK   24  A    between atoms: _100  and  _101
REMARK   25  A    between atoms: _106  and  _108
REMARK   26  A    between atoms: _108  and  _109
REMARK   27  A    between atoms: _108  and  _111
REMARK   28  A    between atoms: _111  and  _112
REMARK   29  A    between atoms: _112  and  _113
REMARK   30  A    between atoms: _118  and  _120
REMARK   31  A    between atoms: _120  and  _121
REMARK   32  A    between atoms: _120  and  _123
REMARK   33  A    between atoms: _123  and  _124
REMARK   34  A    between atoms: _127  and  _129
REMARK   35  A    between atoms: _129  and  _130
REMARK   36  A    between atoms: _129  and  _132
REMARK   37  A    between atoms: _132  and  _133
REMARK   38  A    between atoms: _137  and  FE_415
REMARK   39  A    between atoms: _138  and  _140
REMARK   40  A    between atoms: _140  and  _141
REMARK   41  A    between atoms: _140  and  _143
REMARK   42  A    between atoms: _143  and  _144
REMARK   43  A    between atoms: _144  and  _145
REMARK   44  A    between atoms: _150  and  _152
REMARK   45  A    between atoms: _152  and  _153
REMARK   46  A    between atoms: _152  and  _155
REMARK   47  A    between atoms: _155  and  _156
REMARK   48  A    between atoms: _156  and  _157
REMARK   49  A    between atoms: _157  and  _158
REMARK   50  A    between atoms: _167  and  _169
REMARK   51  A    between atoms: _169  and  _170
REMARK   52  A    between atoms: _169  and  _172
REMARK   53  A    between atoms: _175  and  _177
REMARK   54  A    between atoms: _177  and  _178
REMARK   55  A    between atoms: _180  and  _182
REMARK   56  A    between atoms: _182  and  _183
REMARK   57  A    between atoms: _182  and  _185
REMARK   58  A    between atoms: _187  and  _189
REMARK   59  A    between atoms: _189  and  _190
REMARK   60  A    between atoms: _189  and  _192
REMARK   61  A    between atoms: _192  and  _193
REMARK   62  A    between atoms: _196  and  _198
REMARK   63  A    between atoms: _198  and  _199
REMARK   64  A    between atoms: _202  and  _204
REMARK   65  A    between atoms: _204  and  _205
REMARK   66  A    between atoms: _208  and  _210
REMARK   67  A    between atoms: _210  and  _211
REMARK   68  A    between atoms: _210  and  _213
REMARK   69  A    between atoms: _213  and  _214
REMARK   70  A    between atoms: _216  and  _218
REMARK   71  A    between atoms: _218  and  _219
REMARK   72  A    between atoms: _218  and  _221
REMARK   73  A    between atoms: _221  and  _222
REMARK   74  A    between atoms: _222  and  _223
REMARK   75  A    between atoms: _222  and  _224
REMARK   76  A    between atoms: _224  and  FE_415
REMARK   77  A    between atoms: _225  and  _227
REMARK   78  A    between atoms: _227  and  _228
REMARK   79  A    between atoms: _227  and  _230
REMARK   80  A    between atoms: _230  and  _231
REMARK   81  A    between atoms: _233  and  _235
REMARK   82  A    between atoms: _235  and  _236
REMARK   83  A    between atoms: _235  and  _238
REMARK   84  A    between atoms: _238  and  _239
REMARK   85  A    between atoms: _242  and  _244
REMARK   86  A    between atoms: _244  and  _245
REMARK   87  A    between atoms: _244  and  _247
REMARK   88  A    between atoms: _247  and  _248
REMARK   89  A    between atoms: _250  and  _252
REMARK   90  A    between atoms: _252  and  _253
REMARK   91  A    between atoms: _252  and  _255
REMARK   92  A    between atoms: _255  and  _256
REMARK   93  A    between atoms: _259  and  _261
REMARK   94  A    between atoms: _261  and  _262
REMARK   95  A    between atoms: _261  and  _264
REMARK   96  A    between atoms: _264  and  _265
REMARK   97  A    between atoms: _268  and  _270
REMARK   98  A    between atoms: _270  and  _271
REMARK   99  A    between atoms: _274  and  _276
REMARK  100  A    between atoms: _276  and  _277
REMARK  101  A    between atoms: _276  and  _279
REMARK  102  A    between atoms: _279  and  _280
REMARK  103  A    between atoms: _280  and  _281
REMARK  104  A    between atoms: _281  and  _282
REMARK  105  A    between atoms: _282  and  _283
REMARK  106  A    between atoms: _287  and  _289
REMARK  107  A    between atoms: _289  and  _290
REMARK  108  A    between atoms: _289  and  _292
REMARK  109  A    between atoms: _292  and  _293
REMARK  110  A    between atoms: _299  and  _301
REMARK  111  A    between atoms: _301  and  _302
REMARK  112  A    between atoms: _301  and  _304
REMARK  113  A    between atoms: _304  and  _305
REMARK  114  A    between atoms: _308  and  _310
REMARK  115  A    between atoms: _310  and  _311
REMARK  116  A    between atoms: _310  and  _313
REMARK  117  A    between atoms: _313  and  _314
REMARK  118  A    between atoms: _314  and  _315
REMARK  119  A    between atoms: _320  and  _322
REMARK  120  A    between atoms: _322  and  _323
REMARK  121  A    between atoms: _322  and  _325
REMARK  122  A    between atoms: _328  and  _330
REMARK  123  A    between atoms: _330  and  _331
REMARK  124  A    between atoms: _330  and  _333
REMARK  125  A    between atoms: _333  and  _334
REMARK  126  A    between atoms: _336  and  _338
REMARK  127  A    between atoms: _338  and  _339
REMARK  128  A    between atoms: _338  and  _341
REMARK  129  A    between atoms: _341  and  _342
REMARK  130  A    between atoms: _342  and  _343
REMARK  131  A    between atoms: _343  and  _344
REMARK  132  A    between atoms: _353  and  _355
REMARK  133  A    between atoms: _355  and  _356
REMARK  134  A    between atoms: _355  and  _358
REMARK  135  A    between atoms: _358  and  _359
REMARK  136  A    between atoms: _359  and  _360
REMARK  137  A    between atoms: _360  and  _361
REMARK  138  A    between atoms: _361  and  _362
REMARK  139  A    between atoms: _366  and  _368
REMARK  140  A    between atoms: _368  and  _369
REMARK  141  A    between atoms: _368  and  _371
REMARK  142  A    between atoms: _371  and  _372
REMARK  143  A    between atoms: _372  and  _373
REMARK  144  A    between atoms: _373  and  _374
REMARK  145  A    between atoms: _374  and  _375
REMARK  146  A    between atoms: _379  and  _381
REMARK  147  A    between atoms: _381  and  _382
REMARK  148  A    between atoms: _381  and  _384
REMARK  149  A    between atoms: _384  and  _385
REMARK  150  A    between atoms: _385  and  _386
REMARK  151  A    between atoms: _391  and  _393
REMARK  152  A    between atoms: _393  and  _394
REMARK  153  A    between atoms: _393  and  _396
REMARK  154  A    between atoms: _399  and  _401
REMARK  155  A    between atoms: _401  and  _402
REMARK  156  A    between atoms: _401  and  _404
REMARK  157  A    between atoms: _408  and  _409
REMARK                            x       y       z     vdW  Elec       q    Type
REMARK                         _______ _______ _______ _____ _____    ______ ____
ROOT
ATOM      1  O   HOH     1     -36.456 -58.644  49.146  0.00  0.00    +0.000 OA
ENDROOT
TORSDOF 0
REMARK  Name = ../refined-set-2016/2iw4/2iw4_pocket.pdb
REMARK  157 active torsions:
REMARK  status: ('A' for Active; 'I' for Inactive)
REMARK    1  A    between atoms: _1  and  _3
REMARK    2  A    between atoms: _14  and  _17
REMARK    3  A    between atoms: _17  and  _18
REMARK    4  A    between atoms: _18  and  _19
REMARK    5  A    between atoms: _26  and  _29
REMARK    6  A    between atoms: _29  and  _30
REMARK    7  A    between atoms: _53  and  _56
REMARK    8  A    between atoms: _56  and  _57
REMARK    9  A    between atoms: _62  and  _63
REMARK   10  A    between atoms: _69  and  _71
REMARK   11  A    between atoms: _71  and  _72
REMARK   12  A    between atoms: _71  and  _74
REMARK   13  A    between atoms: _74  and  _75
REMARK   14  A    between atoms: _78  and  _80
REMARK   15  A    between atoms: _80  and  _81
REMARK   16  A    between atoms: _80  and  _83
REMARK   17  A    between atoms: _86  and  _88
REMARK   18  A    between atoms: _88  and  _89
REMARK   19  A    between atoms: _88  and  _91
REMARK   20  A    between atoms: _91  and  _92
REMARK   21  A    between atoms: _95  and  _97
REMARK   22  A    between atoms: _97  and  _98
REMARK   23  A    between atoms: _97  and  _100
REMARK   24  A    between atoms: _100  and  _101
REMARK   25  A    between atoms: _106  and  _108
REMARK   26  A    between atoms: _108  and  _109
REMARK   27  A    between atoms: _108  and  _111
REMARK   28  A    between atoms: _111  and  _112
REMARK   29  A    between atoms: _112  and  _113
REMARK   30  A    between atoms: _118  and  _120
REMARK   31  A    between atoms: _120  and  _121
REMARK   32  A    between atoms: _120  and  _123
REMARK   33  A    between atoms: _123  and  _124
REMARK   34  A    between atoms: _127  and  _129
REMARK   35  A    between atoms: _129  and  _130
REMARK   36  A    between atoms: _129  and  _132
REMARK   37  A    between atoms: _132  and  _133
REMARK   38  A    between atoms: _137  and  FE_415
REMARK   39  A    between atoms: _138  and  _140
REMARK   40  A    between atoms: _140  and  _141
REMARK   41  A    between atoms: _140  and  _143
REMARK   42  A    between atoms: _143  and  _144
REMARK   43  A    between atoms: _144  and  _145
REMARK   44  A    between atoms: _150  and  _152
REMARK   45  A    between atoms: _152  and  _153
REMARK   46  A    between atoms: _152  and  _155
REMARK   47  A    between atoms: _155  and  _156
REMARK   48  A    between atoms: _156  and  _157
REMARK   49  A    between atoms: _157  and  _158
REMARK   50  A    between atoms: _167  and  _169
REMARK   51  A    between atoms: _169  and  _170
REMARK   52  A    between atoms: _169  and  _172
REMARK   53  A    between atoms: _175  and  _177
REMARK   54  A    between atoms: _177  and  _178
REMARK   55  A    between atoms: _180  and  _182
REMARK   56  A    between atoms: _182  and  _183
REMARK   57  A    between atoms: _182  and  _185
REMARK   58  A    between atoms: _187  and  _189
REMARK   59  A    between atoms: _189  and  _190
REMARK   60  A    between atoms: _189  and  _192
REMARK   61  A    between atoms: _192  and  _193
REMARK   62  A    between atoms: _196  and  _198
REMARK   63  A    between atoms: _198  and  _199
REMARK   64  A    between atoms: _202  and  _204
REMARK   65  A    between atoms: _204  and  _205
REMARK   66  A    between atoms: _208  and  _210
REMARK   67  A    between atoms: _210  and  _211
REMARK   68  A    between atoms: _210  and  _213
REMARK   69  A    between atoms: _213  and  _214
REMARK   70  A    between atoms: _216  and  _218
REMARK   71  A    between atoms: _218  and  _219
REMARK   72  A    between atoms: _218  and  _221
REMARK   73  A    between atoms: _221  and  _222
REMARK   74  A    between atoms: _222  and  _223
REMARK   75  A    between atoms: _222  and  _224
REMARK   76  A    between atoms: _224  and  FE_415
REMARK   77  A    between atoms: _225  and  _227
REMARK   78  A    between atoms: _227  and  _228
REMARK   79  A    between atoms: _227  and  _230
REMARK   80  A    between atoms: _230  and  _231
REMARK   81  A    between atoms: _233  and  _235
REMARK   82  A    between atoms: _235  and  _236
REMARK   83  A    between atoms: _235  and  _238
REMARK   84  A    between atoms: _238  and  _239
REMARK   85  A    between atoms: _242  and  _244
REMARK   86  A    between atoms: _244  and  _245
REMARK   87  A    between atoms: _244  and  _247
REMARK   88  A    between atoms: _247  and  _248
REMARK   89  A    between atoms: _250  and  _252
REMARK   90  A    between atoms: _252  and  _253
REMARK   91  A    between atoms: _252  and  _255
REMARK   92  A    between atoms: _255  and  _256
REMARK   93  A    between atoms: _259  and  _261
REMARK   94  A    between atoms: _261  and  _262
REMARK   95  A    between atoms: _261  and  _264
REMARK   96  A    between atoms: _264  and  _265
REMARK   97  A    between atoms: _268  and  _270
REMARK   98  A    between atoms: _270  and  _271
REMARK   99  A    between atoms: _274  and  _276
REMARK  100  A    between atoms: _276  and  _277
REMARK  101  A    between atoms: _276  and  _279
REMARK  102  A    between atoms: _279  and  _280
REMARK  103  A    between atoms: _280  and  _281
REMARK  104  A    between atoms: _281  and  _282
REMARK  105  A    between atoms: _282  and  _283
REMARK  106  A    between atoms: _287  and  _289
REMARK  107  A    between atoms: _289  and  _290
REMARK  108  A    between atoms: _289  and  _292
REMARK  109  A    between atoms: _292  and  _293
REMARK  110  A    between atoms: _299  and  _301
REMARK  111  A    between atoms: _301  and  _302
REMARK  112  A    between atoms: _301  and  _304
REMARK  113  A    between atoms: _304  and  _305
REMARK  114  A    between atoms: _308  and  _310
REMARK  115  A    between atoms: _310  and  _311
REMARK  116  A    between atoms: _310  and  _313
REMARK  117  A    between atoms: _313  and  _314
REMARK  118  A    between atoms: _314  and  _315
REMARK  119  A    between atoms: _320  and  _322
REMARK  120  A    between atoms: _322  and  _323
REMARK  121  A    between atoms: _322  and  _325
REMARK  122  A    between atoms: _328  and  _330
REMARK  123  A    between atoms: _330  and  _331
REMARK  124  A    between atoms: _330  and  _333
REMARK  125  A    between atoms: _333  and  _334
REMARK  126  A    between atoms: _336  and  _338
REMARK  127  A    between atoms: _338  and  _339
REMARK  128  A    between atoms: _338  and  _341
REMARK  129  A    between atoms: _341  and  _342
REMARK  130  A    between atoms: _342  and  _343
REMARK  131  A    between atoms: _343  and  _344
REMARK  132  A    between atoms: _353  and  _355
REMARK  133  A    between atoms: _355  and  _356
REMARK  134  A    between atoms: _355  and  _358
REMARK  135  A    between atoms: _358  and  _359
REMARK  136  A    between atoms: _359  and  _360
REMARK  137  A    between atoms: _360  and  _361
REMARK  138  A    between atoms: _361  and  _362
REMARK  139  A    between atoms: _366  and  _368
REMARK  140  A    between atoms: _368  and  _369
REMARK  141  A    between atoms: _368  and  _371
REMARK  142  A    between atoms: _371  and  _372
REMARK  143  A    between atoms: _372  and  _373
REMARK  144  A    between atoms: _373  and  _374
REMARK  145  A    between atoms: _374  and  _375
REMARK  146  A    between atoms: _379  and  _381
REMARK  147  A    between atoms: _381  and  _382
REMARK  148  A    between atoms: _381  and  _384
REMARK  149  A    between atoms: _384  and  _385
REMARK  150  A    between atoms: _385  and  _386
REMARK  151  A    between atoms: _391  and  _393
REMARK  152  A    between atoms: _393  and  _394
REMARK  153  A    between atoms: _393  and  _396
REMARK  154  A    between atoms: _399  and  _401
REMARK  155  A    between atoms: _401  and  _402
REMARK  156  A    between atoms: _401  and  _404
REMARK  157  A    between atoms: _408  and  _409
REMARK                            x       y       z     vdW  Elec       q    Type
REMARK                         _______ _______ _______ _____ _____    ______ ____
ROOT
ATOM      1  O   HOH     1     -38.213 -56.991  52.993  0.00  0.00    +0.000 OA
ENDROOT
TORSDOF 0
REMARK  Name = ../refined-set-2016/2iw4/2iw4_pocket.pdb
REMARK  157 active torsions:
REMARK  status: ('A' for Active; 'I' for Inactive)
REMARK    1  A    between atoms: _1  and  _3
REMARK    2  A    between atoms: _14  and  _17
REMARK    3  A    between atoms: _17  and  _18
REMARK    4  A    between atoms: _18  and  _19
REMARK    5  A    between atoms: _26  and  _29
REMARK    6  A    between atoms: _29  and  _30
REMARK    7  A    between atoms: _53  and  _56
REMARK    8  A    between atoms: _56  and  _57
REMARK    9  A    between atoms: _62  and  _63
REMARK   10  A    between atoms: _69  and  _71
REMARK   11  A    between atoms: _71  and  _72
REMARK   12  A    between atoms: _71  and  _74
REMARK   13  A    between atoms: _74  and  _75
REMARK   14  A    between atoms: _78  and  _80
REMARK   15  A    between atoms: _80  and  _81
REMARK   16  A    between atoms: _80  and  _83
REMARK   17  A    between atoms: _86  and  _88
REMARK   18  A    between atoms: _88  and  _89
REMARK   19  A    between atoms: _88  and  _91
REMARK   20  A    between atoms: _91  and  _92
REMARK   21  A    between atoms: _95  and  _97
REMARK   22  A    between atoms: _97  and  _98
REMARK   23  A    between atoms: _97  and  _100
REMARK   24  A    between atoms: _100  and  _101
REMARK   25  A    between atoms: _106  and  _108
REMARK   26  A    between atoms: _108  and  _109
REMARK   27  A    between atoms: _108  and  _111
REMARK   28  A    between atoms: _111  and  _112
REMARK   29  A    between atoms: _112  and  _113
REMARK   30  A    between atoms: _118  and  _120
REMARK   31  A    between atoms: _120  and  _121
REMARK   32  A    between atoms: _120  and  _123
REMARK   33  A    between atoms: _123  and  _124
REMARK   34  A    between atoms: _127  and  _129
REMARK   35  A    between atoms: _129  and  _130
REMARK   36  A    between atoms: _129  and  _132
REMARK   37  A    between atoms: _132  and  _133
REMARK   38  A    between atoms: _137  and  FE_415
REMARK   39  A    between atoms: _138  and  _140
REMARK   40  A    between atoms: _140  and  _141
REMARK   41  A    between atoms: _140  and  _143
REMARK   42  A    between atoms: _143  and  _144
REMARK   43  A    between atoms: _144  and  _145
REMARK   44  A    between atoms: _150  and  _152
REMARK   45  A    between atoms: _152  and  _153
REMARK   46  A    between atoms: _152  and  _155
REMARK   47  A    between atoms: _155  and  _156
REMARK   48  A    between atoms: _156  and  _157
REMARK   49  A    between atoms: _157  and  _158
REMARK   50  A    between atoms: _167  and  _169
REMARK   51  A    between atoms: _169  and  _170
REMARK   52  A    between atoms: _169  and  _172
REMARK   53  A    between atoms: _175  and  _177
REMARK   54  A    between atoms: _177  and  _178
REMARK   55  A    between atoms: _180  and  _182
REMARK   56  A    between atoms: _182  and  _183
REMARK   57  A    between atoms: _182  and  _185
REMARK   58  A    between atoms: _187  and  _189
REMARK   59  A    between atoms: _189  and  _190
REMARK   60  A    between atoms: _189  and  _192
REMARK   61  A    between atoms: _192  and  _193
REMARK   62  A    between atoms: _196  and  _198
REMARK   63  A    between atoms: _198  and  _199
REMARK   64  A    between atoms: _202  and  _204
REMARK   65  A    between atoms: _204  and  _205
REMARK   66  A    between atoms: _208  and  _210
REMARK   67  A    between atoms: _210  and  _211
REMARK   68  A    between atoms: _210  and  _213
REMARK   69  A    between atoms: _213  and  _214
REMARK   70  A    between atoms: _216  and  _218
REMARK   71  A    between atoms: _218  and  _219
REMARK   72  A    between atoms: _218  and  _221
REMARK   73  A    between atoms: _221  and  _222
REMARK   74  A    between atoms: _222  and  _223
REMARK   75  A    between atoms: _222  and  _224
REMARK   76  A    between atoms: _224  and  FE_415
REMARK   77  A    between atoms: _225  and  _227
REMARK   78  A    between atoms: _227  and  _228
REMARK   79  A    between atoms: _227  and  _230
REMARK   80  A    between atoms: _230  and  _231
REMARK   81  A    between atoms: _233  and  _235
REMARK   82  A    between atoms: _235  and  _236
REMARK   83  A    between atoms: _235  and  _238
REMARK   84  A    between atoms: _238  and  _239
REMARK   85  A    between atoms: _242  and  _244
REMARK   86  A    between atoms: _244  and  _245
REMARK   87  A    between atoms: _244  and  _247
REMARK   88  A    between atoms: _247  and  _248
REMARK   89  A    between atoms: _250  and  _252
REMARK   90  A    between atoms: _252  and  _253
REMARK   91  A    between atoms: _252  and  _255
REMARK   92  A    between atoms: _255  and  _256
REMARK   93  A    between atoms: _259  and  _261
REMARK   94  A    between atoms: _261  and  _262
REMARK   95  A    between atoms: _261  and  _264
REMARK   96  A    between atoms: _264  and  _265
REMARK   97  A    between atoms: _268  and  _270
REMARK   98  A    between atoms: _270  and  _271
REMARK   99  A    between atoms: _274  and  _276
REMARK  100  A    between atoms: _276  and  _277
REMARK  101  A    between atoms: _276  and  _279
REMARK  102  A    between atoms: _279  and  _280
REMARK  103  A    between atoms: _280  and  _281
REMARK  104  A    between atoms: _281  and  _282
REMARK  105  A    between atoms: _282  and  _283
REMARK  106  A    between atoms: _287  and  _289
REMARK  107  A    between atoms: _289  and  _290
REMARK  108  A    between atoms: _289  and  _292
REMARK  109  A    between atoms: _292  and  _293
REMARK  110  A    between atoms: _299  and  _301
REMARK  111  A    between atoms: _301  and  _302
REMARK  112  A    between atoms: _301  and  _304
REMARK  113  A    between atoms: _304  and  _305
REMARK  114  A    between atoms: _308  and  _310
REMARK  115  A    between atoms: _310  and  _311
REMARK  116  A    between atoms: _310  and  _313
REMARK  117  A    between atoms: _313  and  _314
REMARK  118  A    between atoms: _314  and  _315
REMARK  119  A    between atoms: _320  and  _322
REMARK  120  A    between atoms: _322  and  _323
REMARK  121  A    between atoms: _322  and  _325
REMARK  122  A    between atoms: _328  and  _330
REMARK  123  A    between atoms: _330  and  _331
REMARK  124  A    between atoms: _330  and  _333
REMARK  125  A    between atoms: _333  and  _334
REMARK  126  A    between atoms: _336  and  _338
REMARK  127  A    between atoms: _338  and  _339
REMARK  128  A    between atoms: _338  and  _341
REMARK  129  A    between atoms: _341  and  _342
REMARK  130  A    between atoms: _342  and  _343
REMARK  131  A    between atoms: _343  and  _344
REMARK  132  A    between atoms: _353  and  _355
REMARK  133  A    between atoms: _355  and  _356
REMARK  134  A    between atoms: _355  and  _358
REMARK  135  A    between atoms: _358  and  _359
REMARK  136  A    between atoms: _359  and  _360
REMARK  137  A    between atoms: _360  and  _361
REMARK  138  A    between atoms: _361  and  _362
REMARK  139  A    between atoms: _366  and  _368
REMARK  140  A    between atoms: _368  and  _369
REMARK  141  A    between atoms: _368  and  _371
REMARK  142  A    between atoms: _371  and  _372
REMARK  143  A    between atoms: _372  and  _373
REMARK  144  A    between atoms: _373  and  _374
REMARK  145  A    between atoms: _374  and  _375
REMARK  146  A    between atoms: _379  and  _381
REMARK  147  A    between atoms: _381  and  _382
REMARK  148  A    between atoms: _381  and  _384
REMARK  149  A    between atoms: _384  and  _385
REMARK  150  A    between atoms: _385  and  _386
REMARK  151  A    between atoms: _391  and  _393
REMARK  152  A    between atoms: _393  and  _394
REMARK  153  A    between atoms: _393  and  _396
REMARK  154  A    between atoms: _399  and  _401
REMARK  155  A    between atoms: _401  and  _402
REMARK  156  A    between atoms: _401  and  _404
REMARK  157  A    between atoms: _408  and  _409
REMARK                            x       y       z     vdW  Elec       q    Type
REMARK                         _______ _______ _______ _____ _____    ______ ____
ROOT
ATOM      1  O   HOH     1     -43.711 -72.136  47.553  0.00  0.00    +0.000 OA
ENDROOT
TORSDOF 0
REMARK  Name = ../refined-set-2016/2iw4/2iw4_pocket.pdb
REMARK  157 active torsions:
REMARK  status: ('A' for Active; 'I' for Inactive)
REMARK    1  A    between atoms: _1  and  _3
REMARK    2  A    between atoms: _14  and  _17
REMARK    3  A    between atoms: _17  and  _18
REMARK    4  A    between atoms: _18  and  _19
REMARK    5  A    between atoms: _26  and  _29
REMARK    6  A    between atoms: _29  and  _30
REMARK    7  A    between atoms: _53  and  _56
REMARK    8  A    between atoms: _56  and  _57
REMARK    9  A    between atoms: _62  and  _63
REMARK   10  A    between atoms: _69  and  _71
REMARK   11  A    between atoms: _71  and  _72
REMARK   12  A    between atoms: _71  and  _74
REMARK   13  A    between atoms: _74  and  _75
REMARK   14  A    between atoms: _78  and  _80
REMARK   15  A    between atoms: _80  and  _81
REMARK   16  A    between atoms: _80  and  _83
REMARK   17  A    between atoms: _86  and  _88
REMARK   18  A    between atoms: _88  and  _89
REMARK   19  A    between atoms: _88  and  _91
REMARK   20  A    between atoms: _91  and  _92
REMARK   21  A    between atoms: _95  and  _97
REMARK   22  A    between atoms: _97  and  _98
REMARK   23  A    between atoms: _97  and  _100
REMARK   24  A    between atoms: _100  and  _101
REMARK   25  A    between atoms: _106  and  _108
REMARK   26  A    between atoms: _108  and  _109
REMARK   27  A    between atoms: _108  and  _111
REMARK   28  A    between atoms: _111  and  _112
REMARK   29  A    between atoms: _112  and  _113
REMARK   30  A    between atoms: _118  and  _120
REMARK   31  A    between atoms: _120  and  _121
REMARK   32  A    between atoms: _120  and  _123
REMARK   33  A    between atoms: _123  and  _124
REMARK   34  A    between atoms: _127  and  _129
REMARK   35  A    between atoms: _129  and  _130
REMARK   36  A    between atoms: _129  and  _132
REMARK   37  A    between atoms: _132  and  _133
REMARK   38  A    between atoms: _137  and  FE_415
REMARK   39  A    between atoms: _138  and  _140
REMARK   40  A    between atoms: _140  and  _141
REMARK   41  A    between atoms: _140  and  _143
REMARK   42  A    between atoms: _143  and  _144
REMARK   43  A    between atoms: _144  and  _145
REMARK   44  A    between atoms: _150  and  _152
REMARK   45  A    between atoms: _152  and  _153
REMARK   46  A    between atoms: _152  and  _155
REMARK   47  A    between atoms: _155  and  _156
REMARK   48  A    between atoms: _156  and  _157
REMARK   49  A    between atoms: _157  and  _158
REMARK   50  A    between atoms: _167  and  _169
REMARK   51  A    between atoms: _169  and  _170
REMARK   52  A    between atoms: _169  and  _172
REMARK   53  A    between atoms: _175  and  _177
REMARK   54  A    between atoms: _177  and  _178
REMARK   55  A    between atoms: _180  and  _182
REMARK   56  A    between atoms: _182  and  _183
REMARK   57  A    between atoms: _182  and  _185
REMARK   58  A    between atoms: _187  and  _189
REMARK   59  A    between atoms: _189  and  _190
REMARK   60  A    between atoms: _189  and  _192
REMARK   61  A    between atoms: _192  and  _193
REMARK   62  A    between atoms: _196  and  _198
REMARK   63  A    between atoms: _198  and  _199
REMARK   64  A    between atoms: _202  and  _204
REMARK   65  A    between atoms: _204  and  _205
REMARK   66  A    between atoms: _208  and  _210
REMARK   67  A    between atoms: _210  and  _211
REMARK   68  A    between atoms: _210  and  _213
REMARK   69  A    between atoms: _213  and  _214
REMARK   70  A    between atoms: _216  and  _218
REMARK   71  A    between atoms: _218  and  _219
REMARK   72  A    between atoms: _218  and  _221
REMARK   73  A    between atoms: _221  and  _222
REMARK   74  A    between atoms: _222  and  _223
REMARK   75  A    between atoms: _222  and  _224
REMARK   76  A    between atoms: _224  and  FE_415
REMARK   77  A    between atoms: _225  and  _227
REMARK   78  A    between atoms: _227  and  _228
REMARK   79  A    between atoms: _227  and  _230
REMARK   80  A    between atoms: _230  and  _231
REMARK   81  A    between atoms: _233  and  _235
REMARK   82  A    between atoms: _235  and  _236
REMARK   83  A    between atoms: _235  and  _238
REMARK   84  A    between atoms: _238  and  _239
REMARK   85  A    between atoms: _242  and  _244
REMARK   86  A    between atoms: _244  and  _245
REMARK   87  A    between atoms: _244  and  _247
REMARK   88  A    between atoms: _247  and  _248
REMARK   89  A    between atoms: _250  and  _252
REMARK   90  A    between atoms: _252  and  _253
REMARK   91  A    between atoms: _252  and  _255
REMARK   92  A    between atoms: _255  and  _256
REMARK   93  A    between atoms: _259  and  _261
REMARK   94  A    between atoms: _261  and  _262
REMARK   95  A    between atoms: _261  and  _264
REMARK   96  A    between atoms: _264  and  _265
REMARK   97  A    between atoms: _268  and  _270
REMARK   98  A    between atoms: _270  and  _271
REMARK   99  A    between atoms: _274  and  _276
REMARK  100  A    between atoms: _276  and  _277
REMARK  101  A    between atoms: _276  and  _279
REMARK  102  A    between atoms: _279  and  _280
REMARK  103  A    between atoms: _280  and  _281
REMARK  104  A    between atoms: _281  and  _282
REMARK  105  A    between atoms: _282  and  _283
REMARK  106  A    between atoms: _287  and  _289
REMARK  107  A    between atoms: _289  and  _290
REMARK  108  A    between atoms: _289  and  _292
REMARK  109  A    between atoms: _292  and  _293
REMARK  110  A    between atoms: _299  and  _301
REMARK  111  A    between atoms: _301  and  _302
REMARK  112  A    between atoms: _301  and  _304
REMARK  113  A    between atoms: _304  and  _305
REMARK  114  A    between atoms: _308  and  _310
REMARK  115  A    between atoms: _310  and  _311
REMARK  116  A    between atoms: _310  and  _313
REMARK  117  A    between atoms: _313  and  _314
REMARK  118  A    between atoms: _314  and  _315
REMARK  119  A    between atoms: _320  and  _322
REMARK  120  A    between atoms: _322  and  _323
REMARK  121  A    between atoms: _322  and  _325
REMARK  122  A    between atoms: _328  and  _330
REMARK  123  A    between atoms: _330  and  _331
REMARK  124  A    between atoms: _330  and  _333
REMARK  125  A    between atoms: _333  and  _334
REMARK  126  A    between atoms: _336  and  _338
REMARK  127  A    between atoms: _338  and  _339
REMARK  128  A    between atoms: _338  and  _341
REMARK  129  A    between atoms: _341  and  _342
REMARK  130  A    between atoms: _342  and  _343
REMARK  131  A    between atoms: _343  and  _344
REMARK  132  A    between atoms: _353  and  _355
REMARK  133  A    between atoms: _355  and  _356
REMARK  134  A    between atoms: _355  and  _358
REMARK  135  A    between atoms: _358  and  _359
REMARK  136  A    between atoms: _359  and  _360
REMARK  137  A    between atoms: _360  and  _361
REMARK  138  A    between atoms: _361  and  _362
REMARK  139  A    between atoms: _366  and  _368
REMARK  140  A    between atoms: _368  and  _369
REMARK  141  A    between atoms: _368  and  _371
REMARK  142  A    between atoms: _371  and  _372
REMARK  143  A    between atoms: _372  and  _373
REMARK  144  A    between atoms: _373  and  _374
REMARK  145  A    between atoms: _374  and  _375
REMARK  146  A    between atoms: _379  and  _381
REMARK  147  A    between atoms: _381  and  _382
REMARK  148  A    between atoms: _381  and  _384
REMARK  149  A    between atoms: _384  and  _385
REMARK  150  A    between atoms: _385  and  _386
REMARK  151  A    between atoms: _391  and  _393
REMARK  152  A    between atoms: _393  and  _394
REMARK  153  A    between atoms: _393  and  _396
REMARK  154  A    between atoms: _399  and  _401
REMARK  155  A    between atoms: _401  and  _402
REMARK  156  A    between atoms: _401  and  _404
REMARK  157  A    between atoms: _408  and  _409
REMARK                            x       y       z     vdW  Elec       q    Type
REMARK                         _______ _______ _______ _____ _____    ______ ____
ROOT
ATOM      1  O   HOH     1     -45.948 -72.132  49.225  0.00  0.00    +0.000 OA
ENDROOT
TORSDOF 0
REMARK  Name = ../refined-set-2016/2iw4/2iw4_pocket.pdb
REMARK  157 active torsions:
REMARK  status: ('A' for Active; 'I' for Inactive)
REMARK    1  A    between atoms: _1  and  _3
REMARK    2  A    between atoms: _14  and  _17
REMARK    3  A    between atoms: _17  and  _18
REMARK    4  A    between atoms: _18  and  _19
REMARK    5  A    between atoms: _26  and  _29
REMARK    6  A    between atoms: _29  and  _30
REMARK    7  A    between atoms: _53  and  _56
REMARK    8  A    between atoms: _56  and  _57
REMARK    9  A    between atoms: _62  and  _63
REMARK   10  A    between atoms: _69  and  _71
REMARK   11  A    between atoms: _71  and  _72
REMARK   12  A    between atoms: _71  and  _74
REMARK   13  A    between atoms: _74  and  _75
REMARK   14  A    between atoms: _78  and  _80
REMARK   15  A    between atoms: _80  and  _81
REMARK   16  A    between atoms: _80  and  _83
REMARK   17  A    between atoms: _86  and  _88
REMARK   18  A    between atoms: _88  and  _89
REMARK   19  A    between atoms: _88  and  _91
REMARK   20  A    between atoms: _91  and  _92
REMARK   21  A    between atoms: _95  and  _97
REMARK   22  A    between atoms: _97  and  _98
REMARK   23  A    between atoms: _97  and  _100
REMARK   24  A    between atoms: _100  and  _101
REMARK   25  A    between atoms: _106  and  _108
REMARK   26  A    between atoms: _108  and  _109
REMARK   27  A    between atoms: _108  and  _111
REMARK   28  A    between atoms: _111  and  _112
REMARK   29  A    between atoms: _112  and  _113
REMARK   30  A    between atoms: _118  and  _120
REMARK   31  A    between atoms: _120  and  _121
REMARK   32  A    between atoms: _120  and  _123
REMARK   33  A    between atoms: _123  and  _124
REMARK   34  A    between atoms: _127  and  _129
REMARK   35  A    between atoms: _129  and  _130
REMARK   36  A    between atoms: _129  and  _132
REMARK   37  A    between atoms: _132  and  _133
REMARK   38  A    between atoms: _137  and  FE_415
REMARK   39  A    between atoms: _138  and  _140
REMARK   40  A    between atoms: _140  and  _141
REMARK   41  A    between atoms: _140  and  _143
REMARK   42  A    between atoms: _143  and  _144
REMARK   43  A    between atoms: _144  and  _145
REMARK   44  A    between atoms: _150  and  _152
REMARK   45  A    between atoms: _152  and  _153
REMARK   46  A    between atoms: _152  and  _155
REMARK   47  A    between atoms: _155  and  _156
REMARK   48  A    between atoms: _156  and  _157
REMARK   49  A    between atoms: _157  and  _158
REMARK   50  A    between atoms: _167  and  _169
REMARK   51  A    between atoms: _169  and  _170
REMARK   52  A    between atoms: _169  and  _172
REMARK   53  A    between atoms: _175  and  _177
REMARK   54  A    between atoms: _177  and  _178
REMARK   55  A    between atoms: _180  and  _182
REMARK   56  A    between atoms: _182  and  _183
REMARK   57  A    between atoms: _182  and  _185
REMARK   58  A    between atoms: _187  and  _189
REMARK   59  A    between atoms: _189  and  _190
REMARK   60  A    between atoms: _189  and  _192
REMARK   61  A    between atoms: _192  and  _193
REMARK   62  A    between atoms: _196  and  _198
REMARK   63  A    between atoms: _198  and  _199
REMARK   64  A    between atoms: _202  and  _204
REMARK   65  A    between atoms: _204  and  _205
REMARK   66  A    between atoms: _208  and  _210
REMARK   67  A    between atoms: _210  and  _211
REMARK   68  A    between atoms: _210  and  _213
REMARK   69  A    between atoms: _213  and  _214
REMARK   70  A    between atoms: _216  and  _218
REMARK   71  A    between atoms: _218  and  _219
REMARK   72  A    between atoms: _218  and  _221
REMARK   73  A    between atoms: _221  and  _222
REMARK   74  A    between atoms: _222  and  _223
REMARK   75  A    between atoms: _222  and  _224
REMARK   76  A    between atoms: _224  and  FE_415
REMARK   77  A    between atoms: _225  and  _227
REMARK   78  A    between atoms: _227  and  _228
REMARK   79  A    between atoms: _227  and  _230
REMARK   80  A    between atoms: _230  and  _231
REMARK   81  A    between atoms: _233  and  _235
REMARK   82  A    between atoms: _235  and  _236
REMARK   83  A    between atoms: _235  and  _238
REMARK   84  A    between atoms: _238  and  _239
REMARK   85  A    between atoms: _242  and  _244
REMARK   86  A    between atoms: _244  and  _245
REMARK   87  A    between atoms: _244  and  _247
REMARK   88  A    between atoms: _247  and  _248
REMARK   89  A    between atoms: _250  and  _252
REMARK   90  A    between atoms: _252  and  _253
REMARK   91  A    between atoms: _252  and  _255
REMARK   92  A    between atoms: _255  and  _256
REMARK   93  A    between atoms: _259  and  _261
REMARK   94  A    between atoms: _261  and  _262
REMARK   95  A    between atoms: _261  and  _264
REMARK   96  A    between atoms: _264  and  _265
REMARK   97  A    between atoms: _268  and  _270
REMARK   98  A    between atoms: _270  and  _271
REMARK   99  A    between atoms: _274  and  _276
REMARK  100  A    between atoms: _276  and  _277
REMARK  101  A    between atoms: _276  and  _279
REMARK  102  A    between atoms: _279  and  _280
REMARK  103  A    between atoms: _280  and  _281
REMARK  104  A    between atoms: _281  and  _282
REMARK  105  A    between atoms: _282  and  _283
REMARK  106  A    between atoms: _287  and  _289
REMARK  107  A    between atoms: _289  and  _290
REMARK  108  A    between atoms: _289  and  _292
REMARK  109  A    between atoms: _292  and  _293
REMARK  110  A    between atoms: _299  and  _301
REMARK  111  A    between atoms: _301  and  _302
REMARK  112  A    between atoms: _301  and  _304
REMARK  113  A    between atoms: _304  and  _305
REMARK  114  A    between atoms: _308  and  _310
REMARK  115  A    between atoms: _310  and  _311
REMARK  116  A    between atoms: _310  and  _313
REMARK  117  A    between atoms: _313  and  _314
REMARK  118  A    between atoms: _314  and  _315
REMARK  119  A    between atoms: _320  and  _322
REMARK  120  A    between atoms: _322  and  _323
REMARK  121  A    between atoms: _322  and  _325
REMARK  122  A    between atoms: _328  and  _330
REMARK  123  A    between atoms: _330  and  _331
REMARK  124  A    between atoms: _330  and  _333
REMARK  125  A    between atoms: _333  and  _334
REMARK  126  A    between atoms: _336  and  _338
REMARK  127  A    between atoms: _338  and  _339
REMARK  128  A    between atoms: _338  and  _341
REMARK  129  A    between atoms: _341  and  _342
REMARK  130  A    between atoms: _342  and  _343
REMARK  131  A    between atoms: _343  and  _344
REMARK  132  A    between atoms: _353  and  _355
REMARK  133  A    between atoms: _355  and  _356
REMARK  134  A    between atoms: _355  and  _358
REMARK  135  A    between atoms: _358  and  _359
REMARK  136  A    between atoms: _359  and  _360
REMARK  137  A    between atoms: _360  and  _361
REMARK  138  A    between atoms: _361  and  _362
REMARK  139  A    between atoms: _366  and  _368
REMARK  140  A    between atoms: _368  and  _369
REMARK  141  A    between atoms: _368  and  _371
REMARK  142  A    between atoms: _371  and  _372
REMARK  143  A    between atoms: _372  and  _373
REMARK  144  A    between atoms: _373  and  _374
REMARK  145  A    between atoms: _374  and  _375
REMARK  146  A    between atoms: _379  and  _381
REMARK  147  A    between atoms: _381  and  _382
REMARK  148  A    between atoms: _381  and  _384
REMARK  149  A    between atoms: _384  and  _385
REMARK  150  A    between atoms: _385  and  _386
REMARK  151  A    between atoms: _391  and  _393
REMARK  152  A    between atoms: _393  and  _394
REMARK  153  A    between atoms: _393  and  _396
REMARK  154  A    between atoms: _399  and  _401
REMARK  155  A    between atoms: _401  and  _402
REMARK  156  A    between atoms: _401  and  _404
REMARK  157  A    between atoms: _408  and  _409
REMARK                            x       y       z     vdW  Elec       q    Type
REMARK                         _______ _______ _______ _____ _____    ______ ____
ROOT
ATOM      1  O   HOH     1     -45.489 -69.227  48.771  0.00  0.00    +0.000 OA
ENDROOT
TORSDOF 0
REMARK  Name = ../refined-set-2016/2iw4/2iw4_pocket.pdb
REMARK  157 active torsions:
REMARK  status: ('A' for Active; 'I' for Inactive)
REMARK    1  A    between atoms: _1  and  _3
REMARK    2  A    between atoms: _14  and  _17
REMARK    3  A    between atoms: _17  and  _18
REMARK    4  A    between atoms: _18  and  _19
REMARK    5  A    between atoms: _26  and  _29
REMARK    6  A    between atoms: _29  and  _30
REMARK    7  A    between atoms: _53  and  _56
REMARK    8  A    between atoms: _56  and  _57
REMARK    9  A    between atoms: _62  and  _63
REMARK   10  A    between atoms: _69  and  _71
REMARK   11  A    between atoms: _71  and  _72
REMARK   12  A    between atoms: _71  and  _74
REMARK   13  A    between atoms: _74  and  _75
REMARK   14  A    between atoms: _78  and  _80
REMARK   15  A    between atoms: _80  and  _81
REMARK   16  A    between atoms: _80  and  _83
REMARK   17  A    between atoms: _86  and  _88
REMARK   18  A    between atoms: _88  and  _89
REMARK   19  A    between atoms: _88  and  _91
REMARK   20  A    between atoms: _91  and  _92
REMARK   21  A    between atoms: _95  and  _97
REMARK   22  A    between atoms: _97  and  _98
REMARK   23  A    between atoms: _97  and  _100
REMARK   24  A    between atoms: _100  and  _101
REMARK   25  A    between atoms: _106  and  _108
REMARK   26  A    between atoms: _108  and  _109
REMARK   27  A    between atoms: _108  and  _111
REMARK   28  A    between atoms: _111  and  _112
REMARK   29  A    between atoms: _112  and  _113
REMARK   30  A    between atoms: _118  and  _120
REMARK   31  A    between atoms: _120  and  _121
REMARK   32  A    between atoms: _120  and  _123
REMARK   33  A    between atoms: _123  and  _124
REMARK   34  A    between atoms: _127  and  _129
REMARK   35  A    between atoms: _129  and  _130
REMARK   36  A    between atoms: _129  and  _132
REMARK   37  A    between atoms: _132  and  _133
REMARK   38  A    between atoms: _137  and  FE_415
REMARK   39  A    between atoms: _138  and  _140
REMARK   40  A    between atoms: _140  and  _141
REMARK   41  A    between atoms: _140  and  _143
REMARK   42  A    between atoms: _143  and  _144
REMARK   43  A    between atoms: _144  and  _145
REMARK   44  A    between atoms: _150  and  _152
REMARK   45  A    between atoms: _152  and  _153
REMARK   46  A    between atoms: _152  and  _155
REMARK   47  A    between atoms: _155  and  _156
REMARK   48  A    between atoms: _156  and  _157
REMARK   49  A    between atoms: _157  and  _158
REMARK   50  A    between atoms: _167  and  _169
REMARK   51  A    between atoms: _169  and  _170
REMARK   52  A    between atoms: _169  and  _172
REMARK   53  A    between atoms: _175  and  _177
REMARK   54  A    between atoms: _177  and  _178
REMARK   55  A    between atoms: _180  and  _182
REMARK   56  A    between atoms: _182  and  _183
REMARK   57  A    between atoms: _182  and  _185
REMARK   58  A    between atoms: _187  and  _189
REMARK   59  A    between atoms: _189  and  _190
REMARK   60  A    between atoms: _189  and  _192
REMARK   61  A    between atoms: _192  and  _193
REMARK   62  A    between atoms: _196  and  _198
REMARK   63  A    between atoms: _198  and  _199
REMARK   64  A    between atoms: _202  and  _204
REMARK   65  A    between atoms: _204  and  _205
REMARK   66  A    between atoms: _208  and  _210
REMARK   67  A    between atoms: _210  and  _211
REMARK   68  A    between atoms: _210  and  _213
REMARK   69  A    between atoms: _213  and  _214
REMARK   70  A    between atoms: _216  and  _218
REMARK   71  A    between atoms: _218  and  _219
REMARK   72  A    between atoms: _218  and  _221
REMARK   73  A    between atoms: _221  and  _222
REMARK   74  A    between atoms: _222  and  _223
REMARK   75  A    between atoms: _222  and  _224
REMARK   76  A    between atoms: _224  and  FE_415
REMARK   77  A    between atoms: _225  and  _227
REMARK   78  A    between atoms: _227  and  _228
REMARK   79  A    between atoms: _227  and  _230
REMARK   80  A    between atoms: _230  and  _231
REMARK   81  A    between atoms: _233  and  _235
REMARK   82  A    between atoms: _235  and  _236
REMARK   83  A    between atoms: _235  and  _238
REMARK   84  A    between atoms: _238  and  _239
REMARK   85  A    between atoms: _242  and  _244
REMARK   86  A    between atoms: _244  and  _245
REMARK   87  A    between atoms: _244  and  _247
REMARK   88  A    between atoms: _247  and  _248
REMARK   89  A    between atoms: _250  and  _252
REMARK   90  A    between atoms: _252  and  _253
REMARK   91  A    between atoms: _252  and  _255
REMARK   92  A    between atoms: _255  and  _256
REMARK   93  A    between atoms: _259  and  _261
REMARK   94  A    between atoms: _261  and  _262
REMARK   95  A    between atoms: _261  and  _264
REMARK   96  A    between atoms: _264  and  _265
REMARK   97  A    between atoms: _268  and  _270
REMARK   98  A    between atoms: _270  and  _271
REMARK   99  A    between atoms: _274  and  _276
REMARK  100  A    between atoms: _276  and  _277
REMARK  101  A    between atoms: _276  and  _279
REMARK  102  A    between atoms: _279  and  _280
REMARK  103  A    between atoms: _280  and  _281
REMARK  104  A    between atoms: _281  and  _282
REMARK  105  A    between atoms: _282  and  _283
REMARK  106  A    between atoms: _287  and  _289
REMARK  107  A    between atoms: _289  and  _290
REMARK  108  A    between atoms: _289  and  _292
REMARK  109  A    between atoms: _292  and  _293
REMARK  110  A    between atoms: _299  and  _301
REMARK  111  A    between atoms: _301  and  _302
REMARK  112  A    between atoms: _301  and  _304
REMARK  113  A    between atoms: _304  and  _305
REMARK  114  A    between atoms: _308  and  _310
REMARK  115  A    between atoms: _310  and  _311
REMARK  116  A    between atoms: _310  and  _313
REMARK  117  A    between atoms: _313  and  _314
REMARK  118  A    between atoms: _314  and  _315
REMARK  119  A    between atoms: _320  and  _322
REMARK  120  A    between atoms: _322  and  _323
REMARK  121  A    between atoms: _322  and  _325
REMARK  122  A    between atoms: _328  and  _330
REMARK  123  A    between atoms: _330  and  _331
REMARK  124  A    between atoms: _330  and  _333
REMARK  125  A    between atoms: _333  and  _334
REMARK  126  A    between atoms: _336  and  _338
REMARK  127  A    between atoms: _338  and  _339
REMARK  128  A    between atoms: _338  and  _341
REMARK  129  A    between atoms: _341  and  _342
REMARK  130  A    between atoms: _342  and  _343
REMARK  131  A    between atoms: _343  and  _344
REMARK  132  A    between atoms: _353  and  _355
REMARK  133  A    between atoms: _355  and  _356
REMARK  134  A    between atoms: _355  and  _358
REMARK  135  A    between atoms: _358  and  _359
REMARK  136  A    between atoms: _359  and  _360
REMARK  137  A    between atoms: _360  and  _361
REMARK  138  A    between atoms: _361  and  _362
REMARK  139  A    between atoms: _366  and  _368
REMARK  140  A    between atoms: _368  and  _369
REMARK  141  A    between atoms: _368  and  _371
REMARK  142  A    between atoms: _371  and  _372
REMARK  143  A    between atoms: _372  and  _373
REMARK  144  A    between atoms: _373  and  _374
REMARK  145  A    between atoms: _374  and  _375
REMARK  146  A    between atoms: _379  and  _381
REMARK  147  A    between atoms: _381  and  _382
REMARK  148  A    between atoms: _381  and  _384
REMARK  149  A    between atoms: _384  and  _385
REMARK  150  A    between atoms: _385  and  _386
REMARK  151  A    between atoms: _391  and  _393
REMARK  152  A    between atoms: _393  and  _394
REMARK  153  A    between atoms: _393  and  _396
REMARK  154  A    between atoms: _399  and  _401
REMARK  155  A    between atoms: _401  and  _402
REMARK  156  A    between atoms: _401  and  _404
REMARK  157  A    between atoms: _408  and  _409
REMARK                            x       y       z     vdW  Elec       q    Type
REMARK                         _______ _______ _______ _____ _____    ______ ____
ROOT
ATOM      1  O   HOH     1     -42.621 -70.024  58.273  0.00  0.00    +0.000 OA
ENDROOT
TORSDOF 0
REMARK  Name = ../refined-set-2016/2iw4/2iw4_pocket.pdb
REMARK  157 active torsions:
REMARK  status: ('A' for Active; 'I' for Inactive)
REMARK    1  A    between atoms: _1  and  _3
REMARK    2  A    between atoms: _14  and  _17
REMARK    3  A    between atoms: _17  and  _18
REMARK    4  A    between atoms: _18  and  _19
REMARK    5  A    between atoms: _26  and  _29
REMARK    6  A    between atoms: _29  and  _30
REMARK    7  A    between atoms: _53  and  _56
REMARK    8  A    between atoms: _56  and  _57
REMARK    9  A    between atoms: _62  and  _63
REMARK   10  A    between atoms: _69  and  _71
REMARK   11  A    between atoms: _71  and  _72
REMARK   12  A    between atoms: _71  and  _74
REMARK   13  A    between atoms: _74  and  _75
REMARK   14  A    between atoms: _78  and  _80
REMARK   15  A    between atoms: _80  and  _81
REMARK   16  A    between atoms: _80  and  _83
REMARK   17  A    between atoms: _86  and  _88
REMARK   18  A    between atoms: _88  and  _89
REMARK   19  A    between atoms: _88  and  _91
REMARK   20  A    between atoms: _91  and  _92
REMARK   21  A    between atoms: _95  and  _97
REMARK   22  A    between atoms: _97  and  _98
REMARK   23  A    between atoms: _97  and  _100
REMARK   24  A    between atoms: _100  and  _101
REMARK   25  A    between atoms: _106  and  _108
REMARK   26  A    between atoms: _108  and  _109
REMARK   27  A    between atoms: _108  and  _111
REMARK   28  A    between atoms: _111  and  _112
REMARK   29  A    between atoms: _112  and  _113
REMARK   30  A    between atoms: _118  and  _120
REMARK   31  A    between atoms: _120  and  _121
REMARK   32  A    between atoms: _120  and  _123
REMARK   33  A    between atoms: _123  and  _124
REMARK   34  A    between atoms: _127  and  _129
REMARK   35  A    between atoms: _129  and  _130
REMARK   36  A    between atoms: _129  and  _132
REMARK   37  A    between atoms: _132  and  _133
REMARK   38  A    between atoms: _137  and  FE_415
REMARK   39  A    between atoms: _138  and  _140
REMARK   40  A    between atoms: _140  and  _141
REMARK   41  A    between atoms: _140  and  _143
REMARK   42  A    between atoms: _143  and  _144
REMARK   43  A    between atoms: _144  and  _145
REMARK   44  A    between atoms: _150  and  _152
REMARK   45  A    between atoms: _152  and  _153
REMARK   46  A    between atoms: _152  and  _155
REMARK   47  A    between atoms: _155  and  _156
REMARK   48  A    between atoms: _156  and  _157
REMARK   49  A    between atoms: _157  and  _158
REMARK   50  A    between atoms: _167  and  _169
REMARK   51  A    between atoms: _169  and  _170
REMARK   52  A    between atoms: _169  and  _172
REMARK   53  A    between atoms: _175  and  _177
REMARK   54  A    between atoms: _177  and  _178
REMARK   55  A    between atoms: _180  and  _182
REMARK   56  A    between atoms: _182  and  _183
REMARK   57  A    between atoms: _182  and  _185
REMARK   58  A    between atoms: _187  and  _189
REMARK   59  A    between atoms: _189  and  _190
REMARK   60  A    between atoms: _189  and  _192
REMARK   61  A    between atoms: _192  and  _193
REMARK   62  A    between atoms: _196  and  _198
REMARK   63  A    between atoms: _198  and  _199
REMARK   64  A    between atoms: _202  and  _204
REMARK   65  A    between atoms: _204  and  _205
REMARK   66  A    between atoms: _208  and  _210
REMARK   67  A    between atoms: _210  and  _211
REMARK   68  A    between atoms: _210  and  _213
REMARK   69  A    between atoms: _213  and  _214
REMARK   70  A    between atoms: _216  and  _218
REMARK   71  A    between atoms: _218  and  _219
REMARK   72  A    between atoms: _218  and  _221
REMARK   73  A    between atoms: _221  and  _222
REMARK   74  A    between atoms: _222  and  _223
REMARK   75  A    between atoms: _222  and  _224
REMARK   76  A    between atoms: _224  and  FE_415
REMARK   77  A    between atoms: _225  and  _227
REMARK   78  A    between atoms: _227  and  _228
REMARK   79  A    between atoms: _227  and  _230
REMARK   80  A    between atoms: _230  and  _231
REMARK   81  A    between atoms: _233  and  _235
REMARK   82  A    between atoms: _235  and  _236
REMARK   83  A    between atoms: _235  and  _238
REMARK   84  A    between atoms: _238  and  _239
REMARK   85  A    between atoms: _242  and  _244
REMARK   86  A    between atoms: _244  and  _245
REMARK   87  A    between atoms: _244  and  _247
REMARK   88  A    between atoms: _247  and  _248
REMARK   89  A    between atoms: _250  and  _252
REMARK   90  A    between atoms: _252  and  _253
REMARK   91  A    between atoms: _252  and  _255
REMARK   92  A    between atoms: _255  and  _256
REMARK   93  A    between atoms: _259  and  _261
REMARK   94  A    between atoms: _261  and  _262
REMARK   95  A    between atoms: _261  and  _264
REMARK   96  A    between atoms: _264  and  _265
REMARK   97  A    between atoms: _268  and  _270
REMARK   98  A    between atoms: _270  and  _271
REMARK   99  A    between atoms: _274  and  _276
REMARK  100  A    between atoms: _276  and  _277
REMARK  101  A    between atoms: _276  and  _279
REMARK  102  A    between atoms: _279  and  _280
REMARK  103  A    between atoms: _280  and  _281
REMARK  104  A    between atoms: _281  and  _282
REMARK  105  A    between atoms: _282  and  _283
REMARK  106  A    between atoms: _287  and  _289
REMARK  107  A    between atoms: _289  and  _290
REMARK  108  A    between atoms: _289  and  _292
REMARK  109  A    between atoms: _292  and  _293
REMARK  110  A    between atoms: _299  and  _301
REMARK  111  A    between atoms: _301  and  _302
REMARK  112  A    between atoms: _301  and  _304
REMARK  113  A    between atoms: _304  and  _305
REMARK  114  A    between atoms: _308  and  _310
REMARK  115  A    between atoms: _310  and  _311
REMARK  116  A    between atoms: _310  and  _313
REMARK  117  A    between atoms: _313  and  _314
REMARK  118  A    between atoms: _314  and  _315
REMARK  119  A    between atoms: _320  and  _322
REMARK  120  A    between atoms: _322  and  _323
REMARK  121  A    between atoms: _322  and  _325
REMARK  122  A    between atoms: _328  and  _330
REMARK  123  A    between atoms: _330  and  _331
REMARK  124  A    between atoms: _330  and  _333
REMARK  125  A    between atoms: _333  and  _334
REMARK  126  A    between atoms: _336  and  _338
REMARK  127  A    between atoms: _338  and  _339
REMARK  128  A    between atoms: _338  and  _341
REMARK  129  A    between atoms: _341  and  _342
REMARK  130  A    between atoms: _342  and  _343
REMARK  131  A    between atoms: _343  and  _344
REMARK  132  A    between atoms: _353  and  _355
REMARK  133  A    between atoms: _355  and  _356
REMARK  134  A    between atoms: _355  and  _358
REMARK  135  A    between atoms: _358  and  _359
REMARK  136  A    between atoms: _359  and  _360
REMARK  137  A    between atoms: _360  and  _361
REMARK  138  A    between atoms: _361  and  _362
REMARK  139  A    between atoms: _366  and  _368
REMARK  140  A    between atoms: _368  and  _369
REMARK  141  A    between atoms: _368  and  _371
REMARK  142  A    between atoms: _371  and  _372
REMARK  143  A    between atoms: _372  and  _373
REMARK  144  A    between atoms: _373  and  _374
REMARK  145  A    between atoms: _374  and  _375
REMARK  146  A    between atoms: _379  and  _381
REMARK  147  A    between atoms: _381  and  _382
REMARK  148  A    between atoms: _381  and  _384
REMARK  149  A    between atoms: _384  and  _385
REMARK  150  A    between atoms: _385  and  _386
REMARK  151  A    between atoms: _391  and  _393
REMARK  152  A    between atoms: _393  and  _394
REMARK  153  A    between atoms: _393  and  _396
REMARK  154  A    between atoms: _399  and  _401
REMARK  155  A    between atoms: _401  and  _402
REMARK  156  A    between atoms: _401  and  _404
REMARK  157  A    between atoms: _408  and  _409
REMARK                            x       y       z     vdW  Elec       q    Type
REMARK                         _______ _______ _______ _____ _____    ______ ____
ROOT
ATOM      1  O   HOH     1     -46.933 -69.883  52.692  0.00  0.00    +0.000 OA
ENDROOT
TORSDOF 0
REMARK  Name = ../refined-set-2016/2iw4/2iw4_pocket.pdb
REMARK  157 active torsions:
REMARK  status: ('A' for Active; 'I' for Inactive)
REMARK    1  A    between atoms: _1  and  _3
REMARK    2  A    between atoms: _14  and  _17
REMARK    3  A    between atoms: _17  and  _18
REMARK    4  A    between atoms: _18  and  _19
REMARK    5  A    between atoms: _26  and  _29
REMARK    6  A    between atoms: _29  and  _30
REMARK    7  A    between atoms: _53  and  _56
REMARK    8  A    between atoms: _56  and  _57
REMARK    9  A    between atoms: _62  and  _63
REMARK   10  A    between atoms: _69  and  _71
REMARK   11  A    between atoms: _71  and  _72
REMARK   12  A    between atoms: _71  and  _74
REMARK   13  A    between atoms: _74  and  _75
REMARK   14  A    between atoms: _78  and  _80
REMARK   15  A    between atoms: _80  and  _81
REMARK   16  A    between atoms: _80  and  _83
REMARK   17  A    between atoms: _86  and  _88
REMARK   18  A    between atoms: _88  and  _89
REMARK   19  A    between atoms: _88  and  _91
REMARK   20  A    between atoms: _91  and  _92
REMARK   21  A    between atoms: _95  and  _97
REMARK   22  A    between atoms: _97  and  _98
REMARK   23  A    between atoms: _97  and  _100
REMARK   24  A    between atoms: _100  and  _101
REMARK   25  A    between atoms: _106  and  _108
REMARK   26  A    between atoms: _108  and  _109
REMARK   27  A    between atoms: _108  and  _111
REMARK   28  A    between atoms: _111  and  _112
REMARK   29  A    between atoms: _112  and  _113
REMARK   30  A    between atoms: _118  and  _120
REMARK   31  A    between atoms: _120  and  _121
REMARK   32  A    between atoms: _120  and  _123
REMARK   33  A    between atoms: _123  and  _124
REMARK   34  A    between atoms: _127  and  _129
REMARK   35  A    between atoms: _129  and  _130
REMARK   36  A    between atoms: _129  and  _132
REMARK   37  A    between atoms: _132  and  _133
REMARK   38  A    between atoms: _137  and  FE_415
REMARK   39  A    between atoms: _138  and  _140
REMARK   40  A    between atoms: _140  and  _141
REMARK   41  A    between atoms: _140  and  _143
REMARK   42  A    between atoms: _143  and  _144
REMARK   43  A    between atoms: _144  and  _145
REMARK   44  A    between atoms: _150  and  _152
REMARK   45  A    between atoms: _152  and  _153
REMARK   46  A    between atoms: _152  and  _155
REMARK   47  A    between atoms: _155  and  _156
REMARK   48  A    between atoms: _156  and  _157
REMARK   49  A    between atoms: _157  and  _158
REMARK   50  A    between atoms: _167  and  _169
REMARK   51  A    between atoms: _169  and  _170
REMARK   52  A    between atoms: _169  and  _172
REMARK   53  A    between atoms: _175  and  _177
REMARK   54  A    between atoms: _177  and  _178
REMARK   55  A    between atoms: _180  and  _182
REMARK   56  A    between atoms: _182  and  _183
REMARK   57  A    between atoms: _182  and  _185
REMARK   58  A    between atoms: _187  and  _189
REMARK   59  A    between atoms: _189  and  _190
REMARK   60  A    between atoms: _189  and  _192
REMARK   61  A    between atoms: _192  and  _193
REMARK   62  A    between atoms: _196  and  _198
REMARK   63  A    between atoms: _198  and  _199
REMARK   64  A    between atoms: _202  and  _204
REMARK   65  A    between atoms: _204  and  _205
REMARK   66  A    between atoms: _208  and  _210
REMARK   67  A    between atoms: _210  and  _211
REMARK   68  A    between atoms: _210  and  _213
REMARK   69  A    between atoms: _213  and  _214
REMARK   70  A    between atoms: _216  and  _218
REMARK   71  A    between atoms: _218  and  _219
REMARK   72  A    between atoms: _218  and  _221
REMARK   73  A    between atoms: _221  and  _222
REMARK   74  A    between atoms: _222  and  _223
REMARK   75  A    between atoms: _222  and  _224
REMARK   76  A    between atoms: _224  and  FE_415
REMARK   77  A    between atoms: _225  and  _227
REMARK   78  A    between atoms: _227  and  _228
REMARK   79  A    between atoms: _227  and  _230
REMARK   80  A    between atoms: _230  and  _231
REMARK   81  A    between atoms: _233  and  _235
REMARK   82  A    between atoms: _235  and  _236
REMARK   83  A    between atoms: _235  and  _238
REMARK   84  A    between atoms: _238  and  _239
REMARK   85  A    between atoms: _242  and  _244
REMARK   86  A    between atoms: _244  and  _245
REMARK   87  A    between atoms: _244  and  _247
REMARK   88  A    between atoms: _247  and  _248
REMARK   89  A    between atoms: _250  and  _252
REMARK   90  A    between atoms: _252  and  _253
REMARK   91  A    between atoms: _252  and  _255
REMARK   92  A    between atoms: _255  and  _256
REMARK   93  A    between atoms: _259  and  _261
REMARK   94  A    between atoms: _261  and  _262
REMARK   95  A    between atoms: _261  and  _264
REMARK   96  A    between atoms: _264  and  _265
REMARK   97  A    between atoms: _268  and  _270
REMARK   98  A    between atoms: _270  and  _271
REMARK   99  A    between atoms: _274  and  _276
REMARK  100  A    between atoms: _276  and  _277
REMARK  101  A    between atoms: _276  and  _279
REMARK  102  A    between atoms: _279  and  _280
REMARK  103  A    between atoms: _280  and  _281
REMARK  104  A    between atoms: _281  and  _282
REMARK  105  A    between atoms: _282  and  _283
REMARK  106  A    between atoms: _287  and  _289
REMARK  107  A    between atoms: _289  and  _290
REMARK  108  A    between atoms: _289  and  _292
REMARK  109  A    between atoms: _292  and  _293
REMARK  110  A    between atoms: _299  and  _301
REMARK  111  A    between atoms: _301  and  _302
REMARK  112  A    between atoms: _301  and  _304
REMARK  113  A    between atoms: _304  and  _305
REMARK  114  A    between atoms: _308  and  _310
REMARK  115  A    between atoms: _310  and  _311
REMARK  116  A    between atoms: _310  and  _313
REMARK  117  A    between atoms: _313  and  _314
REMARK  118  A    between atoms: _314  and  _315
REMARK  119  A    between atoms: _320  and  _322
REMARK  120  A    between atoms: _322  and  _323
REMARK  121  A    between atoms: _322  and  _325
REMARK  122  A    between atoms: _328  and  _330
REMARK  123  A    between atoms: _330  and  _331
REMARK  124  A    between atoms: _330  and  _333
REMARK  125  A    between atoms: _333  and  _334
REMARK  126  A    between atoms: _336  and  _338
REMARK  127  A    between atoms: _338  and  _339
REMARK  128  A    between atoms: _338  and  _341
REMARK  129  A    between atoms: _341  and  _342
REMARK  130  A    between atoms: _342  and  _343
REMARK  131  A    between atoms: _343  and  _344
REMARK  132  A    between atoms: _353  and  _355
REMARK  133  A    between atoms: _355  and  _356
REMARK  134  A    between atoms: _355  and  _358
REMARK  135  A    between atoms: _358  and  _359
REMARK  136  A    between atoms: _359  and  _360
REMARK  137  A    between atoms: _360  and  _361
REMARK  138  A    between atoms: _361  and  _362
REMARK  139  A    between atoms: _366  and  _368
REMARK  140  A    between atoms: _368  and  _369
REMARK  141  A    between atoms: _368  and  _371
REMARK  142  A    between atoms: _371  and  _372
REMARK  143  A    between atoms: _372  and  _373
REMARK  144  A    between atoms: _373  and  _374
REMARK  145  A    between atoms: _374  and  _375
REMARK  146  A    between atoms: _379  and  _381
REMARK  147  A    between atoms: _381  and  _382
REMARK  148  A    between atoms: _381  and  _384
REMARK  149  A    between atoms: _384  and  _385
REMARK  150  A    between atoms: _385  and  _386
REMARK  151  A    between atoms: _391  and  _393
REMARK  152  A    between atoms: _393  and  _394
REMARK  153  A    between atoms: _393  and  _396
REMARK  154  A    between atoms: _399  and  _401
REMARK  155  A    between atoms: _401  and  _402
REMARK  156  A    between atoms: _401  and  _404
REMARK  157  A    between atoms: _408  and  _409
REMARK                            x       y       z     vdW  Elec       q    Type
REMARK                         _______ _______ _______ _____ _____    ______ ____
ROOT
ATOM      1  O   HOH     1     -41.004 -64.952  57.053  0.00  0.00    +0.000 OA
ENDROOT
TORSDOF 0
REMARK  Name = ../refined-set-2016/2iw4/2iw4_pocket.pdb
REMARK  157 active torsions:
REMARK  status: ('A' for Active; 'I' for Inactive)
REMARK    1  A    between atoms: _1  and  _3
REMARK    2  A    between atoms: _14  and  _17
REMARK    3  A    between atoms: _17  and  _18
REMARK    4  A    between atoms: _18  and  _19
REMARK    5  A    between atoms: _26  and  _29
REMARK    6  A    between atoms: _29  and  _30
REMARK    7  A    between atoms: _53  and  _56
REMARK    8  A    between atoms: _56  and  _57
REMARK    9  A    between atoms: _62  and  _63
REMARK   10  A    between atoms: _69  and  _71
REMARK   11  A    between atoms: _71  and  _72
REMARK   12  A    between atoms: _71  and  _74
REMARK   13  A    between atoms: _74  and  _75
REMARK   14  A    between atoms: _78  and  _80
REMARK   15  A    between atoms: _80  and  _81
REMARK   16  A    between atoms: _80  and  _83
REMARK   17  A    between atoms: _86  and  _88
REMARK   18  A    between atoms: _88  and  _89
REMARK   19  A    between atoms: _88  and  _91
REMARK   20  A    between atoms: _91  and  _92
REMARK   21  A    between atoms: _95  and  _97
REMARK   22  A    between atoms: _97  and  _98
REMARK   23  A    between atoms: _97  and  _100
REMARK   24  A    between atoms: _100  and  _101
REMARK   25  A    between atoms: _106  and  _108
REMARK   26  A    between atoms: _108  and  _109
REMARK   27  A    between atoms: _108  and  _111
REMARK   28  A    between atoms: _111  and  _112
REMARK   29  A    between atoms: _112  and  _113
REMARK   30  A    between atoms: _118  and  _120
REMARK   31  A    between atoms: _120  and  _121
REMARK   32  A    between atoms: _120  and  _123
REMARK   33  A    between atoms: _123  and  _124
REMARK   34  A    between atoms: _127  and  _129
REMARK   35  A    between atoms: _129  and  _130
REMARK   36  A    between atoms: _129  and  _132
REMARK   37  A    between atoms: _132  and  _133
REMARK   38  A    between atoms: _137  and  FE_415
REMARK   39  A    between atoms: _138  and  _140
REMARK   40  A    between atoms: _140  and  _141
REMARK   41  A    between atoms: _140  and  _143
REMARK   42  A    between atoms: _143  and  _144
REMARK   43  A    between atoms: _144  and  _145
REMARK   44  A    between atoms: _150  and  _152
REMARK   45  A    between atoms: _152  and  _153
REMARK   46  A    between atoms: _152  and  _155
REMARK   47  A    between atoms: _155  and  _156
REMARK   48  A    between atoms: _156  and  _157
REMARK   49  A    between atoms: _157  and  _158
REMARK   50  A    between atoms: _167  and  _169
REMARK   51  A    between atoms: _169  and  _170
REMARK   52  A    between atoms: _169  and  _172
REMARK   53  A    between atoms: _175  and  _177
REMARK   54  A    between atoms: _177  and  _178
REMARK   55  A    between atoms: _180  and  _182
REMARK   56  A    between atoms: _182  and  _183
REMARK   57  A    between atoms: _182  and  _185
REMARK   58  A    between atoms: _187  and  _189
REMARK   59  A    between atoms: _189  and  _190
REMARK   60  A    between atoms: _189  and  _192
REMARK   61  A    between atoms: _192  and  _193
REMARK   62  A    between atoms: _196  and  _198
REMARK   63  A    between atoms: _198  and  _199
REMARK   64  A    between atoms: _202  and  _204
REMARK   65  A    between atoms: _204  and  _205
REMARK   66  A    between atoms: _208  and  _210
REMARK   67  A    between atoms: _210  and  _211
REMARK   68  A    between atoms: _210  and  _213
REMARK   69  A    between atoms: _213  and  _214
REMARK   70  A    between atoms: _216  and  _218
REMARK   71  A    between atoms: _218  and  _219
REMARK   72  A    between atoms: _218  and  _221
REMARK   73  A    between atoms: _221  and  _222
REMARK   74  A    between atoms: _222  and  _223
REMARK   75  A    between atoms: _222  and  _224
REMARK   76  A    between atoms: _224  and  FE_415
REMARK   77  A    between atoms: _225  and  _227
REMARK   78  A    between atoms: _227  and  _228
REMARK   79  A    between atoms: _227  and  _230
REMARK   80  A    between atoms: _230  and  _231
REMARK   81  A    between atoms: _233  and  _235
REMARK   82  A    between atoms: _235  and  _236
REMARK   83  A    between atoms: _235  and  _238
REMARK   84  A    between atoms: _238  and  _239
REMARK   85  A    between atoms: _242  and  _244
REMARK   86  A    between atoms: _244  and  _245
REMARK   87  A    between atoms: _244  and  _247
REMARK   88  A    between atoms: _247  and  _248
REMARK   89  A    between atoms: _250  and  _252
REMARK   90  A    between atoms: _252  and  _253
REMARK   91  A    between atoms: _252  and  _255
REMARK   92  A    between atoms: _255  and  _256
REMARK   93  A    between atoms: _259  and  _261
REMARK   94  A    between atoms: _261  and  _262
REMARK   95  A    between atoms: _261  and  _264
REMARK   96  A    between atoms: _264  and  _265
REMARK   97  A    between atoms: _268  and  _270
REMARK   98  A    between atoms: _270  and  _271
REMARK   99  A    between atoms: _274  and  _276
REMARK  100  A    between atoms: _276  and  _277
REMARK  101  A    between atoms: _276  and  _279
REMARK  102  A    between atoms: _279  and  _280
REMARK  103  A    between atoms: _280  and  _281
REMARK  104  A    between atoms: _281  and  _282
REMARK  105  A    between atoms: _282  and  _283
REMARK  106  A    between atoms: _287  and  _289
REMARK  107  A    between atoms: _289  and  _290
REMARK  108  A    between atoms: _289  and  _292
REMARK  109  A    between atoms: _292  and  _293
REMARK  110  A    between atoms: _299  and  _301
REMARK  111  A    between atoms: _301  and  _302
REMARK  112  A    between atoms: _301  and  _304
REMARK  113  A    between atoms: _304  and  _305
REMARK  114  A    between atoms: _308  and  _310
REMARK  115  A    between atoms: _310  and  _311
REMARK  116  A    between atoms: _310  and  _313
REMARK  117  A    between atoms: _313  and  _314
REMARK  118  A    between atoms: _314  and  _315
REMARK  119  A    between atoms: _320  and  _322
REMARK  120  A    between atoms: _322  and  _323
REMARK  121  A    between atoms: _322  and  _325
REMARK  122  A    between atoms: _328  and  _330
REMARK  123  A    between atoms: _330  and  _331
REMARK  124  A    between atoms: _330  and  _333
REMARK  125  A    between atoms: _333  and  _334
REMARK  126  A    between atoms: _336  and  _338
REMARK  127  A    between atoms: _338  and  _339
REMARK  128  A    between atoms: _338  and  _341
REMARK  129  A    between atoms: _341  and  _342
REMARK  130  A    between atoms: _342  and  _343
REMARK  131  A    between atoms: _343  and  _344
REMARK  132  A    between atoms: _353  and  _355
REMARK  133  A    between atoms: _355  and  _356
REMARK  134  A    between atoms: _355  and  _358
REMARK  135  A    between atoms: _358  and  _359
REMARK  136  A    between atoms: _359  and  _360
REMARK  137  A    between atoms: _360  and  _361
REMARK  138  A    between atoms: _361  and  _362
REMARK  139  A    between atoms: _366  and  _368
REMARK  140  A    between atoms: _368  and  _369
REMARK  141  A    between atoms: _368  and  _371
REMARK  142  A    between atoms: _371  and  _372
REMARK  143  A    between atoms: _372  and  _373
REMARK  144  A    between atoms: _373  and  _374
REMARK  145  A    between atoms: _374  and  _375
REMARK  146  A    between atoms: _379  and  _381
REMARK  147  A    between atoms: _381  and  _382
REMARK  148  A    between atoms: _381  and  _384
REMARK  149  A    between atoms: _384  and  _385
REMARK  150  A    between atoms: _385  and  _386
REMARK  151  A    between atoms: _391  and  _393
REMARK  152  A    between atoms: _393  and  _394
REMARK  153  A    between atoms: _393  and  _396
REMARK  154  A    between atoms: _399  and  _401
REMARK  155  A    between atoms: _401  and  _402
REMARK  156  A    between atoms: _401  and  _404
REMARK  157  A    between atoms: _408  and  _409
REMARK                            x       y       z     vdW  Elec       q    Type
REMARK                         _______ _______ _______ _____ _____    ______ ____
ROOT
ATOM      1  O   HOH     1     -36.405 -61.779  51.491  0.00  0.00    +0.000 OA
ENDROOT
TORSDOF 0
REMARK  Name = ../refined-set-2016/2iw4/2iw4_pocket.pdb
REMARK  157 active torsions:
REMARK  status: ('A' for Active; 'I' for Inactive)
REMARK    1  A    between atoms: _1  and  _3
REMARK    2  A    between atoms: _14  and  _17
REMARK    3  A    between atoms: _17  and  _18
REMARK    4  A    between atoms: _18  and  _19
REMARK    5  A    between atoms: _26  and  _29
REMARK    6  A    between atoms: _29  and  _30
REMARK    7  A    between atoms: _53  and  _56
REMARK    8  A    between atoms: _56  and  _57
REMARK    9  A    between atoms: _62  and  _63
REMARK   10  A    between atoms: _69  and  _71
REMARK   11  A    between atoms: _71  and  _72
REMARK   12  A    between atoms: _71  and  _74
REMARK   13  A    between atoms: _74  and  _75
REMARK   14  A    between atoms: _78  and  _80
REMARK   15  A    between atoms: _80  and  _81
REMARK   16  A    between atoms: _80  and  _83
REMARK   17  A    between atoms: _86  and  _88
REMARK   18  A    between atoms: _88  and  _89
REMARK   19  A    between atoms: _88  and  _91
REMARK   20  A    between atoms: _91  and  _92
REMARK   21  A    between atoms: _95  and  _97
REMARK   22  A    between atoms: _97  and  _98
REMARK   23  A    between atoms: _97  and  _100
REMARK   24  A    between atoms: _100  and  _101
REMARK   25  A    between atoms: _106  and  _108
REMARK   26  A    between atoms: _108  and  _109
REMARK   27  A    between atoms: _108  and  _111
REMARK   28  A    between atoms: _111  and  _112
REMARK   29  A    between atoms: _112  and  _113
REMARK   30  A    between atoms: _118  and  _120
REMARK   31  A    between atoms: _120  and  _121
REMARK   32  A    between atoms: _120  and  _123
REMARK   33  A    between atoms: _123  and  _124
REMARK   34  A    between atoms: _127  and  _129
REMARK   35  A    between atoms: _129  and  _130
REMARK   36  A    between atoms: _129  and  _132
REMARK   37  A    between atoms: _132  and  _133
REMARK   38  A    between atoms: _137  and  FE_415
REMARK   39  A    between atoms: _138  and  _140
REMARK   40  A    between atoms: _140  and  _141
REMARK   41  A    between atoms: _140  and  _143
REMARK   42  A    between atoms: _143  and  _144
REMARK   43  A    between atoms: _144  and  _145
REMARK   44  A    between atoms: _150  and  _152
REMARK   45  A    between atoms: _152  and  _153
REMARK   46  A    between atoms: _152  and  _155
REMARK   47  A    between atoms: _155  and  _156
REMARK   48  A    between atoms: _156  and  _157
REMARK   49  A    between atoms: _157  and  _158
REMARK   50  A    between atoms: _167  and  _169
REMARK   51  A    between atoms: _169  and  _170
REMARK   52  A    between atoms: _169  and  _172
REMARK   53  A    between atoms: _175  and  _177
REMARK   54  A    between atoms: _177  and  _178
REMARK   55  A    between atoms: _180  and  _182
REMARK   56  A    between atoms: _182  and  _183
REMARK   57  A    between atoms: _182  and  _185
REMARK   58  A    between atoms: _187  and  _189
REMARK   59  A    between atoms: _189  and  _190
REMARK   60  A    between atoms: _189  and  _192
REMARK   61  A    between atoms: _192  and  _193
REMARK   62  A    between atoms: _196  and  _198
REMARK   63  A    between atoms: _198  and  _199
REMARK   64  A    between atoms: _202  and  _204
REMARK   65  A    between atoms: _204  and  _205
REMARK   66  A    between atoms: _208  and  _210
REMARK   67  A    between atoms: _210  and  _211
REMARK   68  A    between atoms: _210  and  _213
REMARK   69  A    between atoms: _213  and  _214
REMARK   70  A    between atoms: _216  and  _218
REMARK   71  A    between atoms: _218  and  _219
REMARK   72  A    between atoms: _218  and  _221
REMARK   73  A    between atoms: _221  and  _222
REMARK   74  A    between atoms: _222  and  _223
REMARK   75  A    between atoms: _222  and  _224
REMARK   76  A    between atoms: _224  and  FE_415
REMARK   77  A    between atoms: _225  and  _227
REMARK   78  A    between atoms: _227  and  _228
REMARK   79  A    between atoms: _227  and  _230
REMARK   80  A    between atoms: _230  and  _231
REMARK   81  A    between atoms: _233  and  _235
REMARK   82  A    between atoms: _235  and  _236
REMARK   83  A    between atoms: _235  and  _238
REMARK   84  A    between atoms: _238  and  _239
REMARK   85  A    between atoms: _242  and  _244
REMARK   86  A    between atoms: _244  and  _245
REMARK   87  A    between atoms: _244  and  _247
REMARK   88  A    between atoms: _247  and  _248
REMARK   89  A    between atoms: _250  and  _252
REMARK   90  A    between atoms: _252  and  _253
REMARK   91  A    between atoms: _252  and  _255
REMARK   92  A    between atoms: _255  and  _256
REMARK   93  A    between atoms: _259  and  _261
REMARK   94  A    between atoms: _261  and  _262
REMARK   95  A    between atoms: _261  and  _264
REMARK   96  A    between atoms: _264  and  _265
REMARK   97  A    between atoms: _268  and  _270
REMARK   98  A    between atoms: _270  and  _271
REMARK   99  A    between atoms: _274  and  _276
REMARK  100  A    between atoms: _276  and  _277
REMARK  101  A    between atoms: _276  and  _279
REMARK  102  A    between atoms: _279  and  _280
REMARK  103  A    between atoms: _280  and  _281
REMARK  104  A    between atoms: _281  and  _282
REMARK  105  A    between atoms: _282  and  _283
REMARK  106  A    between atoms: _287  and  _289
REMARK  107  A    between atoms: _289  and  _290
REMARK  108  A    between atoms: _289  and  _292
REMARK  109  A    between atoms: _292  and  _293
REMARK  110  A    between atoms: _299  and  _301
REMARK  111  A    between atoms: _301  and  _302
REMARK  112  A    between atoms: _301  and  _304
REMARK  113  A    between atoms: _304  and  _305
REMARK  114  A    between atoms: _308  and  _310
REMARK  115  A    between atoms: _310  and  _311
REMARK  116  A    between atoms: _310  and  _313
REMARK  117  A    between atoms: _313  and  _314
REMARK  118  A    between atoms: _314  and  _315
REMARK  119  A    between atoms: _320  and  _322
REMARK  120  A    between atoms: _322  and  _323
REMARK  121  A    between atoms: _322  and  _325
REMARK  122  A    between atoms: _328  and  _330
REMARK  123  A    between atoms: _330  and  _331
REMARK  124  A    between atoms: _330  and  _333
REMARK  125  A    between atoms: _333  and  _334
REMARK  126  A    between atoms: _336  and  _338
REMARK  127  A    between atoms: _338  and  _339
REMARK  128  A    between atoms: _338  and  _341
REMARK  129  A    between atoms: _341  and  _342
REMARK  130  A    between atoms: _342  and  _343
REMARK  131  A    between atoms: _343  and  _344
REMARK  132  A    between atoms: _353  and  _355
REMARK  133  A    between atoms: _355  and  _356
REMARK  134  A    between atoms: _355  and  _358
REMARK  135  A    between atoms: _358  and  _359
REMARK  136  A    between atoms: _359  and  _360
REMARK  137  A    between atoms: _360  and  _361
REMARK  138  A    between atoms: _361  and  _362
REMARK  139  A    between atoms: _366  and  _368
REMARK  140  A    between atoms: _368  and  _369
REMARK  141  A    between atoms: _368  and  _371
REMARK  142  A    between atoms: _371  and  _372
REMARK  143  A    between atoms: _372  and  _373
REMARK  144  A    between atoms: _373  and  _374
REMARK  145  A    between atoms: _374  and  _375
REMARK  146  A    between atoms: _379  and  _381
REMARK  147  A    between atoms: _381  and  _382
REMARK  148  A    between atoms: _381  and  _384
REMARK  149  A    between atoms: _384  and  _385
REMARK  150  A    between atoms: _385  and  _386
REMARK  151  A    between atoms: _391  and  _393
REMARK  152  A    between atoms: _393  and  _394
REMARK  153  A    between atoms: _393  and  _396
REMARK  154  A    between atoms: _399  and  _401
REMARK  155  A    between atoms: _401  and  _402
REMARK  156  A    between atoms: _401  and  _404
REMARK  157  A    between atoms: _408  and  _409
REMARK                            x       y       z     vdW  Elec       q    Type
REMARK                         _______ _______ _______ _____ _____    ______ ____
ROOT
ATOM      1  O   HOH     1     -40.611 -59.278  53.941  0.00  0.00    +0.000 OA
ENDROOT
TORSDOF 0
REMARK  Name = ../refined-set-2016/2iw4/2iw4_pocket.pdb
REMARK  157 active torsions:
REMARK  status: ('A' for Active; 'I' for Inactive)
REMARK    1  A    between atoms: _1  and  _3
REMARK    2  A    between atoms: _14  and  _17
REMARK    3  A    between atoms: _17  and  _18
REMARK    4  A    between atoms: _18  and  _19
REMARK    5  A    between atoms: _26  and  _29
REMARK    6  A    between atoms: _29  and  _30
REMARK    7  A    between atoms: _53  and  _56
REMARK    8  A    between atoms: _56  and  _57
REMARK    9  A    between atoms: _62  and  _63
REMARK   10  A    between atoms: _69  and  _71
REMARK   11  A    between atoms: _71  and  _72
REMARK   12  A    between atoms: _71  and  _74
REMARK   13  A    between atoms: _74  and  _75
REMARK   14  A    between atoms: _78  and  _80
REMARK   15  A    between atoms: _80  and  _81
REMARK   16  A    between atoms: _80  and  _83
REMARK   17  A    between atoms: _86  and  _88
REMARK   18  A    between atoms: _88  and  _89
REMARK   19  A    between atoms: _88  and  _91
REMARK   20  A    between atoms: _91  and  _92
REMARK   21  A    between atoms: _95  and  _97
REMARK   22  A    between atoms: _97  and  _98
REMARK   23  A    between atoms: _97  and  _100
REMARK   24  A    between atoms: _100  and  _101
REMARK   25  A    between atoms: _106  and  _108
REMARK   26  A    between atoms: _108  and  _109
REMARK   27  A    between atoms: _108  and  _111
REMARK   28  A    between atoms: _111  and  _112
REMARK   29  A    between atoms: _112  and  _113
REMARK   30  A    between atoms: _118  and  _120
REMARK   31  A    between atoms: _120  and  _121
REMARK   32  A    between atoms: _120  and  _123
REMARK   33  A    between atoms: _123  and  _124
REMARK   34  A    between atoms: _127  and  _129
REMARK   35  A    between atoms: _129  and  _130
REMARK   36  A    between atoms: _129  and  _132
REMARK   37  A    between atoms: _132  and  _133
REMARK   38  A    between atoms: _137  and  FE_415
REMARK   39  A    between atoms: _138  and  _140
REMARK   40  A    between atoms: _140  and  _141
REMARK   41  A    between atoms: _140  and  _143
REMARK   42  A    between atoms: _143  and  _144
REMARK   43  A    between atoms: _144  and  _145
REMARK   44  A    between atoms: _150  and  _152
REMARK   45  A    between atoms: _152  and  _153
REMARK   46  A    between atoms: _152  and  _155
REMARK   47  A    between atoms: _155  and  _156
REMARK   48  A    between atoms: _156  and  _157
REMARK   49  A    between atoms: _157  and  _158
REMARK   50  A    between atoms: _167  and  _169
REMARK   51  A    between atoms: _169  and  _170
REMARK   52  A    between atoms: _169  and  _172
REMARK   53  A    between atoms: _175  and  _177
REMARK   54  A    between atoms: _177  and  _178
REMARK   55  A    between atoms: _180  and  _182
REMARK   56  A    between atoms: _182  and  _183
REMARK   57  A    between atoms: _182  and  _185
REMARK   58  A    between atoms: _187  and  _189
REMARK   59  A    between atoms: _189  and  _190
REMARK   60  A    between atoms: _189  and  _192
REMARK   61  A    between atoms: _192  and  _193
REMARK   62  A    between atoms: _196  and  _198
REMARK   63  A    between atoms: _198  and  _199
REMARK   64  A    between atoms: _202  and  _204
REMARK   65  A    between atoms: _204  and  _205
REMARK   66  A    between atoms: _208  and  _210
REMARK   67  A    between atoms: _210  and  _211
REMARK   68  A    between atoms: _210  and  _213
REMARK   69  A    between atoms: _213  and  _214
REMARK   70  A    between atoms: _216  and  _218
REMARK   71  A    between atoms: _218  and  _219
REMARK   72  A    between atoms: _218  and  _221
REMARK   73  A    between atoms: _221  and  _222
REMARK   74  A    between atoms: _222  and  _223
REMARK   75  A    between atoms: _222  and  _224
REMARK   76  A    between atoms: _224  and  FE_415
REMARK   77  A    between atoms: _225  and  _227
REMARK   78  A    between atoms: _227  and  _228
REMARK   79  A    between atoms: _227  and  _230
REMARK   80  A    between atoms: _230  and  _231
REMARK   81  A    between atoms: _233  and  _235
REMARK   82  A    between atoms: _235  and  _236
REMARK   83  A    between atoms: _235  and  _238
REMARK   84  A    between atoms: _238  and  _239
REMARK   85  A    between atoms: _242  and  _244
REMARK   86  A    between atoms: _244  and  _245
REMARK   87  A    between atoms: _244  and  _247
REMARK   88  A    between atoms: _247  and  _248
REMARK   89  A    between atoms: _250  and  _252
REMARK   90  A    between atoms: _252  and  _253
REMARK   91  A    between atoms: _252  and  _255
REMARK   92  A    between atoms: _255  and  _256
REMARK   93  A    between atoms: _259  and  _261
REMARK   94  A    between atoms: _261  and  _262
REMARK   95  A    between atoms: _261  and  _264
REMARK   96  A    between atoms: _264  and  _265
REMARK   97  A    between atoms: _268  and  _270
REMARK   98  A    between atoms: _270  and  _271
REMARK   99  A    between atoms: _274  and  _276
REMARK  100  A    between atoms: _276  and  _277
REMARK  101  A    between atoms: _276  and  _279
REMARK  102  A    between atoms: _279  and  _280
REMARK  103  A    between atoms: _280  and  _281
REMARK  104  A    between atoms: _281  and  _282
REMARK  105  A    between atoms: _282  and  _283
REMARK  106  A    between atoms: _287  and  _289
REMARK  107  A    between atoms: _289  and  _290
REMARK  108  A    between atoms: _289  and  _292
REMARK  109  A    between atoms: _292  and  _293
REMARK  110  A    between atoms: _299  and  _301
REMARK  111  A    between atoms: _301  and  _302
REMARK  112  A    between atoms: _301  and  _304
REMARK  113  A    between atoms: _304  and  _305
REMARK  114  A    between atoms: _308  and  _310
REMARK  115  A    between atoms: _310  and  _311
REMARK  116  A    between atoms: _310  and  _313
REMARK  117  A    between atoms: _313  and  _314
REMARK  118  A    between atoms: _314  and  _315
REMARK  119  A    between atoms: _320  and  _322
REMARK  120  A    between atoms: _322  and  _323
REMARK  121  A    between atoms: _322  and  _325
REMARK  122  A    between atoms: _328  and  _330
REMARK  123  A    between atoms: _330  and  _331
REMARK  124  A    between atoms: _330  and  _333
REMARK  125  A    between atoms: _333  and  _334
REMARK  126  A    between atoms: _336  and  _338
REMARK  127  A    between atoms: _338  and  _339
REMARK  128  A    between atoms: _338  and  _341
REMARK  129  A    between atoms: _341  and  _342
REMARK  130  A    between atoms: _342  and  _343
REMARK  131  A    between atoms: _343  and  _344
REMARK  132  A    between atoms: _353  and  _355
REMARK  133  A    between atoms: _355  and  _356
REMARK  134  A    between atoms: _355  and  _358
REMARK  135  A    between atoms: _358  and  _359
REMARK  136  A    between atoms: _359  and  _360
REMARK  137  A    between atoms: _360  and  _361
REMARK  138  A    between atoms: _361  and  _362
REMARK  139  A    between atoms: _366  and  _368
REMARK  140  A    between atoms: _368  and  _369
REMARK  141  A    between atoms: _368  and  _371
REMARK  142  A    between atoms: _371  and  _372
REMARK  143  A    between atoms: _372  and  _373
REMARK  144  A    between atoms: _373  and  _374
REMARK  145  A    between atoms: _374  and  _375
REMARK  146  A    between atoms: _379  and  _381
REMARK  147  A    between atoms: _381  and  _382
REMARK  148  A    between atoms: _381  and  _384
REMARK  149  A    between atoms: _384  and  _385
REMARK  150  A    between atoms: _385  and  _386
REMARK  151  A    between atoms: _391  and  _393
REMARK  152  A    between atoms: _393  and  _394
REMARK  153  A    between atoms: _393  and  _396
REMARK  154  A    between atoms: _399  and  _401
REMARK  155  A    between atoms: _401  and  _402
REMARK  156  A    between atoms: _401  and  _404
REMARK  157  A    between atoms: _408  and  _409
REMARK                            x       y       z     vdW  Elec       q    Type
REMARK                         _______ _______ _______ _____ _____    ______ ____
ROOT
ATOM      1  O   HOH     1     -42.738 -61.286  56.892  0.00  0.00    +0.000 OA
ENDROOT
TORSDOF 0
REMARK  Name = ../refined-set-2016/2iw4/2iw4_pocket.pdb
REMARK  157 active torsions:
REMARK  status: ('A' for Active; 'I' for Inactive)
REMARK    1  A    between atoms: _1  and  _3
REMARK    2  A    between atoms: _14  and  _17
REMARK    3  A    between atoms: _17  and  _18
REMARK    4  A    between atoms: _18  and  _19
REMARK    5  A    between atoms: _26  and  _29
REMARK    6  A    between atoms: _29  and  _30
REMARK    7  A    between atoms: _53  and  _56
REMARK    8  A    between atoms: _56  and  _57
REMARK    9  A    between atoms: _62  and  _63
REMARK   10  A    between atoms: _69  and  _71
REMARK   11  A    between atoms: _71  and  _72
REMARK   12  A    between atoms: _71  and  _74
REMARK   13  A    between atoms: _74  and  _75
REMARK   14  A    between atoms: _78  and  _80
REMARK   15  A    between atoms: _80  and  _81
REMARK   16  A    between atoms: _80  and  _83
REMARK   17  A    between atoms: _86  and  _88
REMARK   18  A    between atoms: _88  and  _89
REMARK   19  A    between atoms: _88  and  _91
REMARK   20  A    between atoms: _91  and  _92
REMARK   21  A    between atoms: _95  and  _97
REMARK   22  A    between atoms: _97  and  _98
REMARK   23  A    between atoms: _97  and  _100
REMARK   24  A    between atoms: _100  and  _101
REMARK   25  A    between atoms: _106  and  _108
REMARK   26  A    between atoms: _108  and  _109
REMARK   27  A    between atoms: _108  and  _111
REMARK   28  A    between atoms: _111  and  _112
REMARK   29  A    between atoms: _112  and  _113
REMARK   30  A    between atoms: _118  and  _120
REMARK   31  A    between atoms: _120  and  _121
REMARK   32  A    between atoms: _120  and  _123
REMARK   33  A    between atoms: _123  and  _124
REMARK   34  A    between atoms: _127  and  _129
REMARK   35  A    between atoms: _129  and  _130
REMARK   36  A    between atoms: _129  and  _132
REMARK   37  A    between atoms: _132  and  _133
REMARK   38  A    between atoms: _137  and  FE_415
REMARK   39  A    between atoms: _138  and  _140
REMARK   40  A    between atoms: _140  and  _141
REMARK   41  A    between atoms: _140  and  _143
REMARK   42  A    between atoms: _143  and  _144
REMARK   43  A    between atoms: _144  and  _145
REMARK   44  A    between atoms: _150  and  _152
REMARK   45  A    between atoms: _152  and  _153
REMARK   46  A    between atoms: _152  and  _155
REMARK   47  A    between atoms: _155  and  _156
REMARK   48  A    between atoms: _156  and  _157
REMARK   49  A    between atoms: _157  and  _158
REMARK   50  A    between atoms: _167  and  _169
REMARK   51  A    between atoms: _169  and  _170
REMARK   52  A    between atoms: _169  and  _172
REMARK   53  A    between atoms: _175  and  _177
REMARK   54  A    between atoms: _177  and  _178
REMARK   55  A    between atoms: _180  and  _182
REMARK   56  A    between atoms: _182  and  _183
REMARK   57  A    between atoms: _182  and  _185
REMARK   58  A    between atoms: _187  and  _189
REMARK   59  A    between atoms: _189  and  _190
REMARK   60  A    between atoms: _189  and  _192
REMARK   61  A    between atoms: _192  and  _193
REMARK   62  A    between atoms: _196  and  _198
REMARK   63  A    between atoms: _198  and  _199
REMARK   64  A    between atoms: _202  and  _204
REMARK   65  A    between atoms: _204  and  _205
REMARK   66  A    between atoms: _208  and  _210
REMARK   67  A    between atoms: _210  and  _211
REMARK   68  A    between atoms: _210  and  _213
REMARK   69  A    between atoms: _213  and  _214
REMARK   70  A    between atoms: _216  and  _218
REMARK   71  A    between atoms: _218  and  _219
REMARK   72  A    between atoms: _218  and  _221
REMARK   73  A    between atoms: _221  and  _222
REMARK   74  A    between atoms: _222  and  _223
REMARK   75  A    between atoms: _222  and  _224
REMARK   76  A    between atoms: _224  and  FE_415
REMARK   77  A    between atoms: _225  and  _227
REMARK   78  A    between atoms: _227  and  _228
REMARK   79  A    between atoms: _227  and  _230
REMARK   80  A    between atoms: _230  and  _231
REMARK   81  A    between atoms: _233  and  _235
REMARK   82  A    between atoms: _235  and  _236
REMARK   83  A    between atoms: _235  and  _238
REMARK   84  A    between atoms: _238  and  _239
REMARK   85  A    between atoms: _242  and  _244
REMARK   86  A    between atoms: _244  and  _245
REMARK   87  A    between atoms: _244  and  _247
REMARK   88  A    between atoms: _247  and  _248
REMARK   89  A    between atoms: _250  and  _252
REMARK   90  A    between atoms: _252  and  _253
REMARK   91  A    between atoms: _252  and  _255
REMARK   92  A    between atoms: _255  and  _256
REMARK   93  A    between atoms: _259  and  _261
REMARK   94  A    between atoms: _261  and  _262
REMARK   95  A    between atoms: _261  and  _264
REMARK   96  A    between atoms: _264  and  _265
REMARK   97  A    between atoms: _268  and  _270
REMARK   98  A    between atoms: _270  and  _271
REMARK   99  A    between atoms: _274  and  _276
REMARK  100  A    between atoms: _276  and  _277
REMARK  101  A    between atoms: _276  and  _279
REMARK  102  A    between atoms: _279  and  _280
REMARK  103  A    between atoms: _280  and  _281
REMARK  104  A    between atoms: _281  and  _282
REMARK  105  A    between atoms: _282  and  _283
REMARK  106  A    between atoms: _287  and  _289
REMARK  107  A    between atoms: _289  and  _290
REMARK  108  A    between atoms: _289  and  _292
REMARK  109  A    between atoms: _292  and  _293
REMARK  110  A    between atoms: _299  and  _301
REMARK  111  A    between atoms: _301  and  _302
REMARK  112  A    between atoms: _301  and  _304
REMARK  113  A    between atoms: _304  and  _305
REMARK  114  A    between atoms: _308  and  _310
REMARK  115  A    between atoms: _310  and  _311
REMARK  116  A    between atoms: _310  and  _313
REMARK  117  A    between atoms: _313  and  _314
REMARK  118  A    between atoms: _314  and  _315
REMARK  119  A    between atoms: _320  and  _322
REMARK  120  A    between atoms: _322  and  _323
REMARK  121  A    between atoms: _322  and  _325
REMARK  122  A    between atoms: _328  and  _330
REMARK  123  A    between atoms: _330  and  _331
REMARK  124  A    between atoms: _330  and  _333
REMARK  125  A    between atoms: _333  and  _334
REMARK  126  A    between atoms: _336  and  _338
REMARK  127  A    between atoms: _338  and  _339
REMARK  128  A    between atoms: _338  and  _341
REMARK  129  A    between atoms: _341  and  _342
REMARK  130  A    between atoms: _342  and  _343
REMARK  131  A    between atoms: _343  and  _344
REMARK  132  A    between atoms: _353  and  _355
REMARK  133  A    between atoms: _355  and  _356
REMARK  134  A    between atoms: _355  and  _358
REMARK  135  A    between atoms: _358  and  _359
REMARK  136  A    between atoms: _359  and  _360
REMARK  137  A    between atoms: _360  and  _361
REMARK  138  A    between atoms: _361  and  _362
REMARK  139  A    between atoms: _366  and  _368
REMARK  140  A    between atoms: _368  and  _369
REMARK  141  A    between atoms: _368  and  _371
REMARK  142  A    between atoms: _371  and  _372
REMARK  143  A    between atoms: _372  and  _373
REMARK  144  A    between atoms: _373  and  _374
REMARK  145  A    between atoms: _374  and  _375
REMARK  146  A    between atoms: _379  and  _381
REMARK  147  A    between atoms: _381  and  _382
REMARK  148  A    between atoms: _381  and  _384
REMARK  149  A    between atoms: _384  and  _385
REMARK  150  A    between atoms: _385  and  _386
REMARK  151  A    between atoms: _391  and  _393
REMARK  152  A    between atoms: _393  and  _394
REMARK  153  A    between atoms: _393  and  _396
REMARK  154  A    between atoms: _399  and  _401
REMARK  155  A    between atoms: _401  and  _402
REMARK  156  A    between atoms: _401  and  _404
REMARK  157  A    between atoms: _408  and  _409
REMARK                            x       y       z     vdW  Elec       q    Type
REMARK                         _______ _______ _______ _____ _____    ______ ____
ROOT
ATOM      1  O   HOH     1     -42.961 -60.356  51.016  0.00  0.00    +0.000 OA
ENDROOT
TORSDOF 0
REMARK  Name = ../refined-set-2016/2iw4/2iw4_pocket.pdb
REMARK  157 active torsions:
REMARK  status: ('A' for Active; 'I' for Inactive)
REMARK    1  A    between atoms: _1  and  _3
REMARK    2  A    between atoms: _14  and  _17
REMARK    3  A    between atoms: _17  and  _18
REMARK    4  A    between atoms: _18  and  _19
REMARK    5  A    between atoms: _26  and  _29
REMARK    6  A    between atoms: _29  and  _30
REMARK    7  A    between atoms: _53  and  _56
REMARK    8  A    between atoms: _56  and  _57
REMARK    9  A    between atoms: _62  and  _63
REMARK   10  A    between atoms: _69  and  _71
REMARK   11  A    between atoms: _71  and  _72
REMARK   12  A    between atoms: _71  and  _74
REMARK   13  A    between atoms: _74  and  _75
REMARK   14  A    between atoms: _78  and  _80
REMARK   15  A    between atoms: _80  and  _81
REMARK   16  A    between atoms: _80  and  _83
REMARK   17  A    between atoms: _86  and  _88
REMARK   18  A    between atoms: _88  and  _89
REMARK   19  A    between atoms: _88  and  _91
REMARK   20  A    between atoms: _91  and  _92
REMARK   21  A    between atoms: _95  and  _97
REMARK   22  A    between atoms: _97  and  _98
REMARK   23  A    between atoms: _97  and  _100
REMARK   24  A    between atoms: _100  and  _101
REMARK   25  A    between atoms: _106  and  _108
REMARK   26  A    between atoms: _108  and  _109
REMARK   27  A    between atoms: _108  and  _111
REMARK   28  A    between atoms: _111  and  _112
REMARK   29  A    between atoms: _112  and  _113
REMARK   30  A    between atoms: _118  and  _120
REMARK   31  A    between atoms: _120  and  _121
REMARK   32  A    between atoms: _120  and  _123
REMARK   33  A    between atoms: _123  and  _124
REMARK   34  A    between atoms: _127  and  _129
REMARK   35  A    between atoms: _129  and  _130
REMARK   36  A    between atoms: _129  and  _132
REMARK   37  A    between atoms: _132  and  _133
REMARK   38  A    between atoms: _137  and  FE_415
REMARK   39  A    between atoms: _138  and  _140
REMARK   40  A    between atoms: _140  and  _141
REMARK   41  A    between atoms: _140  and  _143
REMARK   42  A    between atoms: _143  and  _144
REMARK   43  A    between atoms: _144  and  _145
REMARK   44  A    between atoms: _150  and  _152
REMARK   45  A    between atoms: _152  and  _153
REMARK   46  A    between atoms: _152  and  _155
REMARK   47  A    between atoms: _155  and  _156
REMARK   48  A    between atoms: _156  and  _157
REMARK   49  A    between atoms: _157  and  _158
REMARK   50  A    between atoms: _167  and  _169
REMARK   51  A    between atoms: _169  and  _170
REMARK   52  A    between atoms: _169  and  _172
REMARK   53  A    between atoms: _175  and  _177
REMARK   54  A    between atoms: _177  and  _178
REMARK   55  A    between atoms: _180  and  _182
REMARK   56  A    between atoms: _182  and  _183
REMARK   57  A    between atoms: _182  and  _185
REMARK   58  A    between atoms: _187  and  _189
REMARK   59  A    between atoms: _189  and  _190
REMARK   60  A    between atoms: _189  and  _192
REMARK   61  A    between atoms: _192  and  _193
REMARK   62  A    between atoms: _196  and  _198
REMARK   63  A    between atoms: _198  and  _199
REMARK   64  A    between atoms: _202  and  _204
REMARK   65  A    between atoms: _204  and  _205
REMARK   66  A    between atoms: _208  and  _210
REMARK   67  A    between atoms: _210  and  _211
REMARK   68  A    between atoms: _210  and  _213
REMARK   69  A    between atoms: _213  and  _214
REMARK   70  A    between atoms: _216  and  _218
REMARK   71  A    between atoms: _218  and  _219
REMARK   72  A    between atoms: _218  and  _221
REMARK   73  A    between atoms: _221  and  _222
REMARK   74  A    between atoms: _222  and  _223
REMARK   75  A    between atoms: _222  and  _224
REMARK   76  A    between atoms: _224  and  FE_415
REMARK   77  A    between atoms: _225  and  _227
REMARK   78  A    between atoms: _227  and  _228
REMARK   79  A    between atoms: _227  and  _230
REMARK   80  A    between atoms: _230  and  _231
REMARK   81  A    between atoms: _233  and  _235
REMARK   82  A    between atoms: _235  and  _236
REMARK   83  A    between atoms: _235  and  _238
REMARK   84  A    between atoms: _238  and  _239
REMARK   85  A    between atoms: _242  and  _244
REMARK   86  A    between atoms: _244  and  _245
REMARK   87  A    between atoms: _244  and  _247
REMARK   88  A    between atoms: _247  and  _248
REMARK   89  A    between atoms: _250  and  _252
REMARK   90  A    between atoms: _252  and  _253
REMARK   91  A    between atoms: _252  and  _255
REMARK   92  A    between atoms: _255  and  _256
REMARK   93  A    between atoms: _259  and  _261
REMARK   94  A    between atoms: _261  and  _262
REMARK   95  A    between atoms: _261  and  _264
REMARK   96  A    between atoms: _264  and  _265
REMARK   97  A    between atoms: _268  and  _270
REMARK   98  A    between atoms: _270  and  _271
REMARK   99  A    between atoms: _274  and  _276
REMARK  100  A    between atoms: _276  and  _277
REMARK  101  A    between atoms: _276  and  _279
REMARK  102  A    between atoms: _279  and  _280
REMARK  103  A    between atoms: _280  and  _281
REMARK  104  A    between atoms: _281  and  _282
REMARK  105  A    between atoms: _282  and  _283
REMARK  106  A    between atoms: _287  and  _289
REMARK  107  A    between atoms: _289  and  _290
REMARK  108  A    between atoms: _289  and  _292
REMARK  109  A    between atoms: _292  and  _293
REMARK  110  A    between atoms: _299  and  _301
REMARK  111  A    between atoms: _301  and  _302
REMARK  112  A    between atoms: _301  and  _304
REMARK  113  A    between atoms: _304  and  _305
REMARK  114  A    between atoms: _308  and  _310
REMARK  115  A    between atoms: _310  and  _311
REMARK  116  A    between atoms: _310  and  _313
REMARK  117  A    between atoms: _313  and  _314
REMARK  118  A    between atoms: _314  and  _315
REMARK  119  A    between atoms: _320  and  _322
REMARK  120  A    between atoms: _322  and  _323
REMARK  121  A    between atoms: _322  and  _325
REMARK  122  A    between atoms: _328  and  _330
REMARK  123  A    between atoms: _330  and  _331
REMARK  124  A    between atoms: _330  and  _333
REMARK  125  A    between atoms: _333  and  _334
REMARK  126  A    between atoms: _336  and  _338
REMARK  127  A    between atoms: _338  and  _339
REMARK  128  A    between atoms: _338  and  _341
REMARK  129  A    between atoms: _341  and  _342
REMARK  130  A    between atoms: _342  and  _343
REMARK  131  A    between atoms: _343  and  _344
REMARK  132  A    between atoms: _353  and  _355
REMARK  133  A    between atoms: _355  and  _356
REMARK  134  A    between atoms: _355  and  _358
REMARK  135  A    between atoms: _358  and  _359
REMARK  136  A    between atoms: _359  and  _360
REMARK  137  A    between atoms: _360  and  _361
REMARK  138  A    between atoms: _361  and  _362
REMARK  139  A    between atoms: _366  and  _368
REMARK  140  A    between atoms: _368  and  _369
REMARK  141  A    between atoms: _368  and  _371
REMARK  142  A    between atoms: _371  and  _372
REMARK  143  A    between atoms: _372  and  _373
REMARK  144  A    between atoms: _373  and  _374
REMARK  145  A    between atoms: _374  and  _375
REMARK  146  A    between atoms: _379  and  _381
REMARK  147  A    between atoms: _381  and  _382
REMARK  148  A    between atoms: _381  and  _384
REMARK  149  A    between atoms: _384  and  _385
REMARK  150  A    between atoms: _385  and  _386
REMARK  151  A    between atoms: _391  and  _393
REMARK  152  A    between atoms: _393  and  _394
REMARK  153  A    between atoms: _393  and  _396
REMARK  154  A    between atoms: _399  and  _401
REMARK  155  A    between atoms: _401  and  _402
REMARK  156  A    between atoms: _401  and  _404
REMARK  157  A    between atoms: _408  and  _409
REMARK                            x       y       z     vdW  Elec       q    Type
REMARK                         _______ _______ _______ _____ _____    ______ ____
ROOT
ATOM      1  O   HOH     1     -40.135 -61.428  46.176  0.00  0.00    +0.000 OA
ENDROOT
TORSDOF 0
REMARK  Name = ../refined-set-2016/2iw4/2iw4_pocket.pdb
REMARK  157 active torsions:
REMARK  status: ('A' for Active; 'I' for Inactive)
REMARK    1  A    between atoms: _1  and  _3
REMARK    2  A    between atoms: _14  and  _17
REMARK    3  A    between atoms: _17  and  _18
REMARK    4  A    between atoms: _18  and  _19
REMARK    5  A    between atoms: _26  and  _29
REMARK    6  A    between atoms: _29  and  _30
REMARK    7  A    between atoms: _53  and  _56
REMARK    8  A    between atoms: _56  and  _57
REMARK    9  A    between atoms: _62  and  _63
REMARK   10  A    between atoms: _69  and  _71
REMARK   11  A    between atoms: _71  and  _72
REMARK   12  A    between atoms: _71  and  _74
REMARK   13  A    between atoms: _74  and  _75
REMARK   14  A    between atoms: _78  and  _80
REMARK   15  A    between atoms: _80  and  _81
REMARK   16  A    between atoms: _80  and  _83
REMARK   17  A    between atoms: _86  and  _88
REMARK   18  A    between atoms: _88  and  _89
REMARK   19  A    between atoms: _88  and  _91
REMARK   20  A    between atoms: _91  and  _92
REMARK   21  A    between atoms: _95  and  _97
REMARK   22  A    between atoms: _97  and  _98
REMARK   23  A    between atoms: _97  and  _100
REMARK   24  A    between atoms: _100  and  _101
REMARK   25  A    between atoms: _106  and  _108
REMARK   26  A    between atoms: _108  and  _109
REMARK   27  A    between atoms: _108  and  _111
REMARK   28  A    between atoms: _111  and  _112
REMARK   29  A    between atoms: _112  and  _113
REMARK   30  A    between atoms: _118  and  _120
REMARK   31  A    between atoms: _120  and  _121
REMARK   32  A    between atoms: _120  and  _123
REMARK   33  A    between atoms: _123  and  _124
REMARK   34  A    between atoms: _127  and  _129
REMARK   35  A    between atoms: _129  and  _130
REMARK   36  A    between atoms: _129  and  _132
REMARK   37  A    between atoms: _132  and  _133
REMARK   38  A    between atoms: _137  and  FE_415
REMARK   39  A    between atoms: _138  and  _140
REMARK   40  A    between atoms: _140  and  _141
REMARK   41  A    between atoms: _140  and  _143
REMARK   42  A    between atoms: _143  and  _144
REMARK   43  A    between atoms: _144  and  _145
REMARK   44  A    between atoms: _150  and  _152
REMARK   45  A    between atoms: _152  and  _153
REMARK   46  A    between atoms: _152  and  _155
REMARK   47  A    between atoms: _155  and  _156
REMARK   48  A    between atoms: _156  and  _157
REMARK   49  A    between atoms: _157  and  _158
REMARK   50  A    between atoms: _167  and  _169
REMARK   51  A    between atoms: _169  and  _170
REMARK   52  A    between atoms: _169  and  _172
REMARK   53  A    between atoms: _175  and  _177
REMARK   54  A    between atoms: _177  and  _178
REMARK   55  A    between atoms: _180  and  _182
REMARK   56  A    between atoms: _182  and  _183
REMARK   57  A    between atoms: _182  and  _185
REMARK   58  A    between atoms: _187  and  _189
REMARK   59  A    between atoms: _189  and  _190
REMARK   60  A    between atoms: _189  and  _192
REMARK   61  A    between atoms: _192  and  _193
REMARK   62  A    between atoms: _196  and  _198
REMARK   63  A    between atoms: _198  and  _199
REMARK   64  A    between atoms: _202  and  _204
REMARK   65  A    between atoms: _204  and  _205
REMARK   66  A    between atoms: _208  and  _210
REMARK   67  A    between atoms: _210  and  _211
REMARK   68  A    between atoms: _210  and  _213
REMARK   69  A    between atoms: _213  and  _214
REMARK   70  A    between atoms: _216  and  _218
REMARK   71  A    between atoms: _218  and  _219
REMARK   72  A    between atoms: _218  and  _221
REMARK   73  A    between atoms: _221  and  _222
REMARK   74  A    between atoms: _222  and  _223
REMARK   75  A    between atoms: _222  and  _224
REMARK   76  A    between atoms: _224  and  FE_415
REMARK   77  A    between atoms: _225  and  _227
REMARK   78  A    between atoms: _227  and  _228
REMARK   79  A    between atoms: _227  and  _230
REMARK   80  A    between atoms: _230  and  _231
REMARK   81  A    between atoms: _233  and  _235
REMARK   82  A    between atoms: _235  and  _236
REMARK   83  A    between atoms: _235  and  _238
REMARK   84  A    between atoms: _238  and  _239
REMARK   85  A    between atoms: _242  and  _244
REMARK   86  A    between atoms: _244  and  _245
REMARK   87  A    between atoms: _244  and  _247
REMARK   88  A    between atoms: _247  and  _248
REMARK   89  A    between atoms: _250  and  _252
REMARK   90  A    between atoms: _252  and  _253
REMARK   91  A    between atoms: _252  and  _255
REMARK   92  A    between atoms: _255  and  _256
REMARK   93  A    between atoms: _259  and  _261
REMARK   94  A    between atoms: _261  and  _262
REMARK   95  A    between atoms: _261  and  _264
REMARK   96  A    between atoms: _264  and  _265
REMARK   97  A    between atoms: _268  and  _270
REMARK   98  A    between atoms: _270  and  _271
REMARK   99  A    between atoms: _274  and  _276
REMARK  100  A    between atoms: _276  and  _277
REMARK  101  A    between atoms: _276  and  _279
REMARK  102  A    between atoms: _279  and  _280
REMARK  103  A    between atoms: _280  and  _281
REMARK  104  A    between atoms: _281  and  _282
REMARK  105  A    between atoms: _282  and  _283
REMARK  106  A    between atoms: _287  and  _289
REMARK  107  A    between atoms: _289  and  _290
REMARK  108  A    between atoms: _289  and  _292
REMARK  109  A    between atoms: _292  and  _293
REMARK  110  A    between atoms: _299  and  _301
REMARK  111  A    between atoms: _301  and  _302
REMARK  112  A    between atoms: _301  and  _304
REMARK  113  A    between atoms: _304  and  _305
REMARK  114  A    between atoms: _308  and  _310
REMARK  115  A    between atoms: _310  and  _311
REMARK  116  A    between atoms: _310  and  _313
REMARK  117  A    between atoms: _313  and  _314
REMARK  118  A    between atoms: _314  and  _315
REMARK  119  A    between atoms: _320  and  _322
REMARK  120  A    between atoms: _322  and  _323
REMARK  121  A    between atoms: _322  and  _325
REMARK  122  A    between atoms: _328  and  _330
REMARK  123  A    between atoms: _330  and  _331
REMARK  124  A    between atoms: _330  and  _333
REMARK  125  A    between atoms: _333  and  _334
REMARK  126  A    between atoms: _336  and  _338
REMARK  127  A    between atoms: _338  and  _339
REMARK  128  A    between atoms: _338  and  _341
REMARK  129  A    between atoms: _341  and  _342
REMARK  130  A    between atoms: _342  and  _343
REMARK  131  A    between atoms: _343  and  _344
REMARK  132  A    between atoms: _353  and  _355
REMARK  133  A    between atoms: _355  and  _356
REMARK  134  A    between atoms: _355  and  _358
REMARK  135  A    between atoms: _358  and  _359
REMARK  136  A    between atoms: _359  and  _360
REMARK  137  A    between atoms: _360  and  _361
REMARK  138  A    between atoms: _361  and  _362
REMARK  139  A    between atoms: _366  and  _368
REMARK  140  A    between atoms: _368  and  _369
REMARK  141  A    between atoms: _368  and  _371
REMARK  142  A    between atoms: _371  and  _372
REMARK  143  A    between atoms: _372  and  _373
REMARK  144  A    between atoms: _373  and  _374
REMARK  145  A    between atoms: _374  and  _375
REMARK  146  A    between atoms: _379  and  _381
REMARK  147  A    between atoms: _381  and  _382
REMARK  148  A    between atoms: _381  and  _384
REMARK  149  A    between atoms: _384  and  _385
REMARK  150  A    between atoms: _385  and  _386
REMARK  151  A    between atoms: _391  and  _393
REMARK  152  A    between atoms: _393  and  _394
REMARK  153  A    between atoms: _393  and  _396
REMARK  154  A    between atoms: _399  and  _401
REMARK  155  A    between atoms: _401  and  _402
REMARK  156  A    between atoms: _401  and  _404
REMARK  157  A    between atoms: _408  and  _409
REMARK                            x       y       z     vdW  Elec       q    Type
REMARK                         _______ _______ _______ _____ _____    ______ ____
ROOT
ATOM      1  O   HOH     1     -42.234 -68.870  48.048  0.00  0.00    +0.000 OA
ENDROOT
TORSDOF 0
REMARK  Name = ../refined-set-2016/2iw4/2iw4_pocket.pdb
REMARK  157 active torsions:
REMARK  status: ('A' for Active; 'I' for Inactive)
REMARK    1  A    between atoms: _1  and  _3
REMARK    2  A    between atoms: _14  and  _17
REMARK    3  A    between atoms: _17  and  _18
REMARK    4  A    between atoms: _18  and  _19
REMARK    5  A    between atoms: _26  and  _29
REMARK    6  A    between atoms: _29  and  _30
REMARK    7  A    between atoms: _53  and  _56
REMARK    8  A    between atoms: _56  and  _57
REMARK    9  A    between atoms: _62  and  _63
REMARK   10  A    between atoms: _69  and  _71
REMARK   11  A    between atoms: _71  and  _72
REMARK   12  A    between atoms: _71  and  _74
REMARK   13  A    between atoms: _74  and  _75
REMARK   14  A    between atoms: _78  and  _80
REMARK   15  A    between atoms: _80  and  _81
REMARK   16  A    between atoms: _80  and  _83
REMARK   17  A    between atoms: _86  and  _88
REMARK   18  A    between atoms: _88  and  _89
REMARK   19  A    between atoms: _88  and  _91
REMARK   20  A    between atoms: _91  and  _92
REMARK   21  A    between atoms: _95  and  _97
REMARK   22  A    between atoms: _97  and  _98
REMARK   23  A    between atoms: _97  and  _100
REMARK   24  A    between atoms: _100  and  _101
REMARK   25  A    between atoms: _106  and  _108
REMARK   26  A    between atoms: _108  and  _109
REMARK   27  A    between atoms: _108  and  _111
REMARK   28  A    between atoms: _111  and  _112
REMARK   29  A    between atoms: _112  and  _113
REMARK   30  A    between atoms: _118  and  _120
REMARK   31  A    between atoms: _120  and  _121
REMARK   32  A    between atoms: _120  and  _123
REMARK   33  A    between atoms: _123  and  _124
REMARK   34  A    between atoms: _127  and  _129
REMARK   35  A    between atoms: _129  and  _130
REMARK   36  A    between atoms: _129  and  _132
REMARK   37  A    between atoms: _132  and  _133
REMARK   38  A    between atoms: _137  and  FE_415
REMARK   39  A    between atoms: _138  and  _140
REMARK   40  A    between atoms: _140  and  _141
REMARK   41  A    between atoms: _140  and  _143
REMARK   42  A    between atoms: _143  and  _144
REMARK   43  A    between atoms: _144  and  _145
REMARK   44  A    between atoms: _150  and  _152
REMARK   45  A    between atoms: _152  and  _153
REMARK   46  A    between atoms: _152  and  _155
REMARK   47  A    between atoms: _155  and  _156
REMARK   48  A    between atoms: _156  and  _157
REMARK   49  A    between atoms: _157  and  _158
REMARK   50  A    between atoms: _167  and  _169
REMARK   51  A    between atoms: _169  and  _170
REMARK   52  A    between atoms: _169  and  _172
REMARK   53  A    between atoms: _175  and  _177
REMARK   54  A    between atoms: _177  and  _178
REMARK   55  A    between atoms: _180  and  _182
REMARK   56  A    between atoms: _182  and  _183
REMARK   57  A    between atoms: _182  and  _185
REMARK   58  A    between atoms: _187  and  _189
REMARK   59  A    between atoms: _189  and  _190
REMARK   60  A    between atoms: _189  and  _192
REMARK   61  A    between atoms: _192  and  _193
REMARK   62  A    between atoms: _196  and  _198
REMARK   63  A    between atoms: _198  and  _199
REMARK   64  A    between atoms: _202  and  _204
REMARK   65  A    between atoms: _204  and  _205
REMARK   66  A    between atoms: _208  and  _210
REMARK   67  A    between atoms: _210  and  _211
REMARK   68  A    between atoms: _210  and  _213
REMARK   69  A    between atoms: _213  and  _214
REMARK   70  A    between atoms: _216  and  _218
REMARK   71  A    between atoms: _218  and  _219
REMARK   72  A    between atoms: _218  and  _221
REMARK   73  A    between atoms: _221  and  _222
REMARK   74  A    between atoms: _222  and  _223
REMARK   75  A    between atoms: _222  and  _224
REMARK   76  A    between atoms: _224  and  FE_415
REMARK   77  A    between atoms: _225  and  _227
REMARK   78  A    between atoms: _227  and  _228
REMARK   79  A    between atoms: _227  and  _230
REMARK   80  A    between atoms: _230  and  _231
REMARK   81  A    between atoms: _233  and  _235
REMARK   82  A    between atoms: _235  and  _236
REMARK   83  A    between atoms: _235  and  _238
REMARK   84  A    between atoms: _238  and  _239
REMARK   85  A    between atoms: _242  and  _244
REMARK   86  A    between atoms: _244  and  _245
REMARK   87  A    between atoms: _244  and  _247
REMARK   88  A    between atoms: _247  and  _248
REMARK   89  A    between atoms: _250  and  _252
REMARK   90  A    between atoms: _252  and  _253
REMARK   91  A    between atoms: _252  and  _255
REMARK   92  A    between atoms: _255  and  _256
REMARK   93  A    between atoms: _259  and  _261
REMARK   94  A    between atoms: _261  and  _262
REMARK   95  A    between atoms: _261  and  _264
REMARK   96  A    between atoms: _264  and  _265
REMARK   97  A    between atoms: _268  and  _270
REMARK   98  A    between atoms: _270  and  _271
REMARK   99  A    between atoms: _274  and  _276
REMARK  100  A    between atoms: _276  and  _277
REMARK  101  A    between atoms: _276  and  _279
REMARK  102  A    between atoms: _279  and  _280
REMARK  103  A    between atoms: _280  and  _281
REMARK  104  A    between atoms: _281  and  _282
REMARK  105  A    between atoms: _282  and  _283
REMARK  106  A    between atoms: _287  and  _289
REMARK  107  A    between atoms: _289  and  _290
REMARK  108  A    between atoms: _289  and  _292
REMARK  109  A    between atoms: _292  and  _293
REMARK  110  A    between atoms: _299  and  _301
REMARK  111  A    between atoms: _301  and  _302
REMARK  112  A    between atoms: _301  and  _304
REMARK  113  A    between atoms: _304  and  _305
REMARK  114  A    between atoms: _308  and  _310
REMARK  115  A    between atoms: _310  and  _311
REMARK  116  A    between atoms: _310  and  _313
REMARK  117  A    between atoms: _313  and  _314
REMARK  118  A    between atoms: _314  and  _315
REMARK  119  A    between atoms: _320  and  _322
REMARK  120  A    between atoms: _322  and  _323
REMARK  121  A    between atoms: _322  and  _325
REMARK  122  A    between atoms: _328  and  _330
REMARK  123  A    between atoms: _330  and  _331
REMARK  124  A    between atoms: _330  and  _333
REMARK  125  A    between atoms: _333  and  _334
REMARK  126  A    between atoms: _336  and  _338
REMARK  127  A    between atoms: _338  and  _339
REMARK  128  A    between atoms: _338  and  _341
REMARK  129  A    between atoms: _341  and  _342
REMARK  130  A    between atoms: _342  and  _343
REMARK  131  A    between atoms: _343  and  _344
REMARK  132  A    between atoms: _353  and  _355
REMARK  133  A    between atoms: _355  and  _356
REMARK  134  A    between atoms: _355  and  _358
REMARK  135  A    between atoms: _358  and  _359
REMARK  136  A    between atoms: _359  and  _360
REMARK  137  A    between atoms: _360  and  _361
REMARK  138  A    between atoms: _361  and  _362
REMARK  139  A    between atoms: _366  and  _368
REMARK  140  A    between atoms: _368  and  _369
REMARK  141  A    between atoms: _368  and  _371
REMARK  142  A    between atoms: _371  and  _372
REMARK  143  A    between atoms: _372  and  _373
REMARK  144  A    between atoms: _373  and  _374
REMARK  145  A    between atoms: _374  and  _375
REMARK  146  A    between atoms: _379  and  _381
REMARK  147  A    between atoms: _381  and  _382
REMARK  148  A    between atoms: _381  and  _384
REMARK  149  A    between atoms: _384  and  _385
REMARK  150  A    between atoms: _385  and  _386
REMARK  151  A    between atoms: _391  and  _393
REMARK  152  A    between atoms: _393  and  _394
REMARK  153  A    between atoms: _393  and  _396
REMARK  154  A    between atoms: _399  and  _401
REMARK  155  A    between atoms: _401  and  _402
REMARK  156  A    between atoms: _401  and  _404
REMARK  157  A    between atoms: _408  and  _409
REMARK                            x       y       z     vdW  Elec       q    Type
REMARK                         _______ _______ _______ _____ _____    ______ ____
ROOT
ATOM      1  O   HOH     1     -44.893 -61.468  53.237  0.00  0.00    +0.000 OA
ENDROOT
TORSDOF 0
REMARK  Name = ../refined-set-2016/2iw4/2iw4_pocket.pdb
REMARK  157 active torsions:
REMARK  status: ('A' for Active; 'I' for Inactive)
REMARK    1  A    between atoms: _1  and  _3
REMARK    2  A    between atoms: _14  and  _17
REMARK    3  A    between atoms: _17  and  _18
REMARK    4  A    between atoms: _18  and  _19
REMARK    5  A    between atoms: _26  and  _29
REMARK    6  A    between atoms: _29  and  _30
REMARK    7  A    between atoms: _53  and  _56
REMARK    8  A    between atoms: _56  and  _57
REMARK    9  A    between atoms: _62  and  _63
REMARK   10  A    between atoms: _69  and  _71
REMARK   11  A    between atoms: _71  and  _72
REMARK   12  A    between atoms: _71  and  _74
REMARK   13  A    between atoms: _74  and  _75
REMARK   14  A    between atoms: _78  and  _80
REMARK   15  A    between atoms: _80  and  _81
REMARK   16  A    between atoms: _80  and  _83
REMARK   17  A    between atoms: _86  and  _88
REMARK   18  A    between atoms: _88  and  _89
REMARK   19  A    between atoms: _88  and  _91
REMARK   20  A    between atoms: _91  and  _92
REMARK   21  A    between atoms: _95  and  _97
REMARK   22  A    between atoms: _97  and  _98
REMARK   23  A    between atoms: _97  and  _100
REMARK   24  A    between atoms: _100  and  _101
REMARK   25  A    between atoms: _106  and  _108
REMARK   26  A    between atoms: _108  and  _109
REMARK   27  A    between atoms: _108  and  _111
REMARK   28  A    between atoms: _111  and  _112
REMARK   29  A    between atoms: _112  and  _113
REMARK   30  A    between atoms: _118  and  _120
REMARK   31  A    between atoms: _120  and  _121
REMARK   32  A    between atoms: _120  and  _123
REMARK   33  A    between atoms: _123  and  _124
REMARK   34  A    between atoms: _127  and  _129
REMARK   35  A    between atoms: _129  and  _130
REMARK   36  A    between atoms: _129  and  _132
REMARK   37  A    between atoms: _132  and  _133
REMARK   38  A    between atoms: _137  and  FE_415
REMARK   39  A    between atoms: _138  and  _140
REMARK   40  A    between atoms: _140  and  _141
REMARK   41  A    between atoms: _140  and  _143
REMARK   42  A    between atoms: _143  and  _144
REMARK   43  A    between atoms: _144  and  _145
REMARK   44  A    between atoms: _150  and  _152
REMARK   45  A    between atoms: _152  and  _153
REMARK   46  A    between atoms: _152  and  _155
REMARK   47  A    between atoms: _155  and  _156
REMARK   48  A    between atoms: _156  and  _157
REMARK   49  A    between atoms: _157  and  _158
REMARK   50  A    between atoms: _167  and  _169
REMARK   51  A    between atoms: _169  and  _170
REMARK   52  A    between atoms: _169  and  _172
REMARK   53  A    between atoms: _175  and  _177
REMARK   54  A    between atoms: _177  and  _178
REMARK   55  A    between atoms: _180  and  _182
REMARK   56  A    between atoms: _182  and  _183
REMARK   57  A    between atoms: _182  and  _185
REMARK   58  A    between atoms: _187  and  _189
REMARK   59  A    between atoms: _189  and  _190
REMARK   60  A    between atoms: _189  and  _192
REMARK   61  A    between atoms: _192  and  _193
REMARK   62  A    between atoms: _196  and  _198
REMARK   63  A    between atoms: _198  and  _199
REMARK   64  A    between atoms: _202  and  _204
REMARK   65  A    between atoms: _204  and  _205
REMARK   66  A    between atoms: _208  and  _210
REMARK   67  A    between atoms: _210  and  _211
REMARK   68  A    between atoms: _210  and  _213
REMARK   69  A    between atoms: _213  and  _214
REMARK   70  A    between atoms: _216  and  _218
REMARK   71  A    between atoms: _218  and  _219
REMARK   72  A    between atoms: _218  and  _221
REMARK   73  A    between atoms: _221  and  _222
REMARK   74  A    between atoms: _222  and  _223
REMARK   75  A    between atoms: _222  and  _224
REMARK   76  A    between atoms: _224  and  FE_415
REMARK   77  A    between atoms: _225  and  _227
REMARK   78  A    between atoms: _227  and  _228
REMARK   79  A    between atoms: _227  and  _230
REMARK   80  A    between atoms: _230  and  _231
REMARK   81  A    between atoms: _233  and  _235
REMARK   82  A    between atoms: _235  and  _236
REMARK   83  A    between atoms: _235  and  _238
REMARK   84  A    between atoms: _238  and  _239
REMARK   85  A    between atoms: _242  and  _244
REMARK   86  A    between atoms: _244  and  _245
REMARK   87  A    between atoms: _244  and  _247
REMARK   88  A    between atoms: _247  and  _248
REMARK   89  A    between atoms: _250  and  _252
REMARK   90  A    between atoms: _252  and  _253
REMARK   91  A    between atoms: _252  and  _255
REMARK   92  A    between atoms: _255  and  _256
REMARK   93  A    between atoms: _259  and  _261
REMARK   94  A    between atoms: _261  and  _262
REMARK   95  A    between atoms: _261  and  _264
REMARK   96  A    between atoms: _264  and  _265
REMARK   97  A    between atoms: _268  and  _270
REMARK   98  A    between atoms: _270  and  _271
REMARK   99  A    between atoms: _274  and  _276
REMARK  100  A    between atoms: _276  and  _277
REMARK  101  A    between atoms: _276  and  _279
REMARK  102  A    between atoms: _279  and  _280
REMARK  103  A    between atoms: _280  and  _281
REMARK  104  A    between atoms: _281  and  _282
REMARK  105  A    between atoms: _282  and  _283
REMARK  106  A    between atoms: _287  and  _289
REMARK  107  A    between atoms: _289  and  _290
REMARK  108  A    between atoms: _289  and  _292
REMARK  109  A    between atoms: _292  and  _293
REMARK  110  A    between atoms: _299  and  _301
REMARK  111  A    between atoms: _301  and  _302
REMARK  112  A    between atoms: _301  and  _304
REMARK  113  A    between atoms: _304  and  _305
REMARK  114  A    between atoms: _308  and  _310
REMARK  115  A    between atoms: _310  and  _311
REMARK  116  A    between atoms: _310  and  _313
REMARK  117  A    between atoms: _313  and  _314
REMARK  118  A    between atoms: _314  and  _315
REMARK  119  A    between atoms: _320  and  _322
REMARK  120  A    between atoms: _322  and  _323
REMARK  121  A    between atoms: _322  and  _325
REMARK  122  A    between atoms: _328  and  _330
REMARK  123  A    between atoms: _330  and  _331
REMARK  124  A    between atoms: _330  and  _333
REMARK  125  A    between atoms: _333  and  _334
REMARK  126  A    between atoms: _336  and  _338
REMARK  127  A    between atoms: _338  and  _339
REMARK  128  A    between atoms: _338  and  _341
REMARK  129  A    between atoms: _341  and  _342
REMARK  130  A    between atoms: _342  and  _343
REMARK  131  A    between atoms: _343  and  _344
REMARK  132  A    between atoms: _353  and  _355
REMARK  133  A    between atoms: _355  and  _356
REMARK  134  A    between atoms: _355  and  _358
REMARK  135  A    between atoms: _358  and  _359
REMARK  136  A    between atoms: _359  and  _360
REMARK  137  A    between atoms: _360  and  _361
REMARK  138  A    between atoms: _361  and  _362
REMARK  139  A    between atoms: _366  and  _368
REMARK  140  A    between atoms: _368  and  _369
REMARK  141  A    between atoms: _368  and  _371
REMARK  142  A    between atoms: _371  and  _372
REMARK  143  A    between atoms: _372  and  _373
REMARK  144  A    between atoms: _373  and  _374
REMARK  145  A    between atoms: _374  and  _375
REMARK  146  A    between atoms: _379  and  _381
REMARK  147  A    between atoms: _381  and  _382
REMARK  148  A    between atoms: _381  and  _384
REMARK  149  A    between atoms: _384  and  _385
REMARK  150  A    between atoms: _385  and  _386
REMARK  151  A    between atoms: _391  and  _393
REMARK  152  A    between atoms: _393  and  _394
REMARK  153  A    between atoms: _393  and  _396
REMARK  154  A    between atoms: _399  and  _401
REMARK  155  A    between atoms: _401  and  _402
REMARK  156  A    between atoms: _401  and  _404
REMARK  157  A    between atoms: _408  and  _409
REMARK                            x       y       z     vdW  Elec       q    Type
REMARK                         _______ _______ _______ _____ _____    ______ ____
ROOT
ATOM      1  O   HOH     1     -42.082 -57.442  52.777  0.00  0.00    +0.000 OA
ENDROOT
TORSDOF 0
REMARK  Name = ../refined-set-2016/2iw4/2iw4_pocket.pdb
REMARK  157 active torsions:
REMARK  status: ('A' for Active; 'I' for Inactive)
REMARK    1  A    between atoms: _1  and  _3
REMARK    2  A    between atoms: _14  and  _17
REMARK    3  A    between atoms: _17  and  _18
REMARK    4  A    between atoms: _18  and  _19
REMARK    5  A    between atoms: _26  and  _29
REMARK    6  A    between atoms: _29  and  _30
REMARK    7  A    between atoms: _53  and  _56
REMARK    8  A    between atoms: _56  and  _57
REMARK    9  A    between atoms: _62  and  _63
REMARK   10  A    between atoms: _69  and  _71
REMARK   11  A    between atoms: _71  and  _72
REMARK   12  A    between atoms: _71  and  _74
REMARK   13  A    between atoms: _74  and  _75
REMARK   14  A    between atoms: _78  and  _80
REMARK   15  A    between atoms: _80  and  _81
REMARK   16  A    between atoms: _80  and  _83
REMARK   17  A    between atoms: _86  and  _88
REMARK   18  A    between atoms: _88  and  _89
REMARK   19  A    between atoms: _88  and  _91
REMARK   20  A    between atoms: _91  and  _92
REMARK   21  A    between atoms: _95  and  _97
REMARK   22  A    between atoms: _97  and  _98
REMARK   23  A    between atoms: _97  and  _100
REMARK   24  A    between atoms: _100  and  _101
REMARK   25  A    between atoms: _106  and  _108
REMARK   26  A    between atoms: _108  and  _109
REMARK   27  A    between atoms: _108  and  _111
REMARK   28  A    between atoms: _111  and  _112
REMARK   29  A    between atoms: _112  and  _113
REMARK   30  A    between atoms: _118  and  _120
REMARK   31  A    between atoms: _120  and  _121
REMARK   32  A    between atoms: _120  and  _123
REMARK   33  A    between atoms: _123  and  _124
REMARK   34  A    between atoms: _127  and  _129
REMARK   35  A    between atoms: _129  and  _130
REMARK   36  A    between atoms: _129  and  _132
REMARK   37  A    between atoms: _132  and  _133
REMARK   38  A    between atoms: _137  and  FE_415
REMARK   39  A    between atoms: _138  and  _140
REMARK   40  A    between atoms: _140  and  _141
REMARK   41  A    between atoms: _140  and  _143
REMARK   42  A    between atoms: _143  and  _144
REMARK   43  A    between atoms: _144  and  _145
REMARK   44  A    between atoms: _150  and  _152
REMARK   45  A    between atoms: _152  and  _153
REMARK   46  A    between atoms: _152  and  _155
REMARK   47  A    between atoms: _155  and  _156
REMARK   48  A    between atoms: _156  and  _157
REMARK   49  A    between atoms: _157  and  _158
REMARK   50  A    between atoms: _167  and  _169
REMARK   51  A    between atoms: _169  and  _170
REMARK   52  A    between atoms: _169  and  _172
REMARK   53  A    between atoms: _175  and  _177
REMARK   54  A    between atoms: _177  and  _178
REMARK   55  A    between atoms: _180  and  _182
REMARK   56  A    between atoms: _182  and  _183
REMARK   57  A    between atoms: _182  and  _185
REMARK   58  A    between atoms: _187  and  _189
REMARK   59  A    between atoms: _189  and  _190
REMARK   60  A    between atoms: _189  and  _192
REMARK   61  A    between atoms: _192  and  _193
REMARK   62  A    between atoms: _196  and  _198
REMARK   63  A    between atoms: _198  and  _199
REMARK   64  A    between atoms: _202  and  _204
REMARK   65  A    between atoms: _204  and  _205
REMARK   66  A    between atoms: _208  and  _210
REMARK   67  A    between atoms: _210  and  _211
REMARK   68  A    between atoms: _210  and  _213
REMARK   69  A    between atoms: _213  and  _214
REMARK   70  A    between atoms: _216  and  _218
REMARK   71  A    between atoms: _218  and  _219
REMARK   72  A    between atoms: _218  and  _221
REMARK   73  A    between atoms: _221  and  _222
REMARK   74  A    between atoms: _222  and  _223
REMARK   75  A    between atoms: _222  and  _224
REMARK   76  A    between atoms: _224  and  FE_415
REMARK   77  A    between atoms: _225  and  _227
REMARK   78  A    between atoms: _227  and  _228
REMARK   79  A    between atoms: _227  and  _230
REMARK   80  A    between atoms: _230  and  _231
REMARK   81  A    between atoms: _233  and  _235
REMARK   82  A    between atoms: _235  and  _236
REMARK   83  A    between atoms: _235  and  _238
REMARK   84  A    between atoms: _238  and  _239
REMARK   85  A    between atoms: _242  and  _244
REMARK   86  A    between atoms: _244  and  _245
REMARK   87  A    between atoms: _244  and  _247
REMARK   88  A    between atoms: _247  and  _248
REMARK   89  A    between atoms: _250  and  _252
REMARK   90  A    between atoms: _252  and  _253
REMARK   91  A    between atoms: _252  and  _255
REMARK   92  A    between atoms: _255  and  _256
REMARK   93  A    between atoms: _259  and  _261
REMARK   94  A    between atoms: _261  and  _262
REMARK   95  A    between atoms: _261  and  _264
REMARK   96  A    between atoms: _264  and  _265
REMARK   97  A    between atoms: _268  and  _270
REMARK   98  A    between atoms: _270  and  _271
REMARK   99  A    between atoms: _274  and  _276
REMARK  100  A    between atoms: _276  and  _277
REMARK  101  A    between atoms: _276  and  _279
REMARK  102  A    between atoms: _279  and  _280
REMARK  103  A    between atoms: _280  and  _281
REMARK  104  A    between atoms: _281  and  _282
REMARK  105  A    between atoms: _282  and  _283
REMARK  106  A    between atoms: _287  and  _289
REMARK  107  A    between atoms: _289  and  _290
REMARK  108  A    between atoms: _289  and  _292
REMARK  109  A    between atoms: _292  and  _293
REMARK  110  A    between atoms: _299  and  _301
REMARK  111  A    between atoms: _301  and  _302
REMARK  112  A    between atoms: _301  and  _304
REMARK  113  A    between atoms: _304  and  _305
REMARK  114  A    between atoms: _308  and  _310
REMARK  115  A    between atoms: _310  and  _311
REMARK  116  A    between atoms: _310  and  _313
REMARK  117  A    between atoms: _313  and  _314
REMARK  118  A    between atoms: _314  and  _315
REMARK  119  A    between atoms: _320  and  _322
REMARK  120  A    between atoms: _322  and  _323
REMARK  121  A    between atoms: _322  and  _325
REMARK  122  A    between atoms: _328  and  _330
REMARK  123  A    between atoms: _330  and  _331
REMARK  124  A    between atoms: _330  and  _333
REMARK  125  A    between atoms: _333  and  _334
REMARK  126  A    between atoms: _336  and  _338
REMARK  127  A    between atoms: _338  and  _339
REMARK  128  A    between atoms: _338  and  _341
REMARK  129  A    between atoms: _341  and  _342
REMARK  130  A    between atoms: _342  and  _343
REMARK  131  A    between atoms: _343  and  _344
REMARK  132  A    between atoms: _353  and  _355
REMARK  133  A    between atoms: _355  and  _356
REMARK  134  A    between atoms: _355  and  _358
REMARK  135  A    between atoms: _358  and  _359
REMARK  136  A    between atoms: _359  and  _360
REMARK  137  A    between atoms: _360  and  _361
REMARK  138  A    between atoms: _361  and  _362
REMARK  139  A    between atoms: _366  and  _368
REMARK  140  A    between atoms: _368  and  _369
REMARK  141  A    between atoms: _368  and  _371
REMARK  142  A    between atoms: _371  and  _372
REMARK  143  A    between atoms: _372  and  _373
REMARK  144  A    between atoms: _373  and  _374
REMARK  145  A    between atoms: _374  and  _375
REMARK  146  A    between atoms: _379  and  _381
REMARK  147  A    between atoms: _381  and  _382
REMARK  148  A    between atoms: _381  and  _384
REMARK  149  A    between atoms: _384  and  _385
REMARK  150  A    between atoms: _385  and  _386
REMARK  151  A    between atoms: _391  and  _393
REMARK  152  A    between atoms: _393  and  _394
REMARK  153  A    between atoms: _393  and  _396
REMARK  154  A    between atoms: _399  and  _401
REMARK  155  A    between atoms: _401  and  _402
REMARK  156  A    between atoms: _401  and  _404
REMARK  157  A    between atoms: _408  and  _409
REMARK                            x       y       z     vdW  Elec       q    Type
REMARK                         _______ _______ _______ _____ _____    ______ ____
ROOT
ATOM      1  O   HOH     1     -43.420 -59.062  55.560  0.00  0.00    +0.000 OA
ENDROOT
TORSDOF 0
REMARK  Name = ../refined-set-2016/2iw4/2iw4_pocket.pdb
REMARK  157 active torsions:
REMARK  status: ('A' for Active; 'I' for Inactive)
REMARK    1  A    between atoms: _1  and  _3
REMARK    2  A    between atoms: _14  and  _17
REMARK    3  A    between atoms: _17  and  _18
REMARK    4  A    between atoms: _18  and  _19
REMARK    5  A    between atoms: _26  and  _29
REMARK    6  A    between atoms: _29  and  _30
REMARK    7  A    between atoms: _53  and  _56
REMARK    8  A    between atoms: _56  and  _57
REMARK    9  A    between atoms: _62  and  _63
REMARK   10  A    between atoms: _69  and  _71
REMARK   11  A    between atoms: _71  and  _72
REMARK   12  A    between atoms: _71  and  _74
REMARK   13  A    between atoms: _74  and  _75
REMARK   14  A    between atoms: _78  and  _80
REMARK   15  A    between atoms: _80  and  _81
REMARK   16  A    between atoms: _80  and  _83
REMARK   17  A    between atoms: _86  and  _88
REMARK   18  A    between atoms: _88  and  _89
REMARK   19  A    between atoms: _88  and  _91
REMARK   20  A    between atoms: _91  and  _92
REMARK   21  A    between atoms: _95  and  _97
REMARK   22  A    between atoms: _97  and  _98
REMARK   23  A    between atoms: _97  and  _100
REMARK   24  A    between atoms: _100  and  _101
REMARK   25  A    between atoms: _106  and  _108
REMARK   26  A    between atoms: _108  and  _109
REMARK   27  A    between atoms: _108  and  _111
REMARK   28  A    between atoms: _111  and  _112
REMARK   29  A    between atoms: _112  and  _113
REMARK   30  A    between atoms: _118  and  _120
REMARK   31  A    between atoms: _120  and  _121
REMARK   32  A    between atoms: _120  and  _123
REMARK   33  A    between atoms: _123  and  _124
REMARK   34  A    between atoms: _127  and  _129
REMARK   35  A    between atoms: _129  and  _130
REMARK   36  A    between atoms: _129  and  _132
REMARK   37  A    between atoms: _132  and  _133
REMARK   38  A    between atoms: _137  and  FE_415
REMARK   39  A    between atoms: _138  and  _140
REMARK   40  A    between atoms: _140  and  _141
REMARK   41  A    between atoms: _140  and  _143
REMARK   42  A    between atoms: _143  and  _144
REMARK   43  A    between atoms: _144  and  _145
REMARK   44  A    between atoms: _150  and  _152
REMARK   45  A    between atoms: _152  and  _153
REMARK   46  A    between atoms: _152  and  _155
REMARK   47  A    between atoms: _155  and  _156
REMARK   48  A    between atoms: _156  and  _157
REMARK   49  A    between atoms: _157  and  _158
REMARK   50  A    between atoms: _167  and  _169
REMARK   51  A    between atoms: _169  and  _170
REMARK   52  A    between atoms: _169  and  _172
REMARK   53  A    between atoms: _175  and  _177
REMARK   54  A    between atoms: _177  and  _178
REMARK   55  A    between atoms: _180  and  _182
REMARK   56  A    between atoms: _182  and  _183
REMARK   57  A    between atoms: _182  and  _185
REMARK   58  A    between atoms: _187  and  _189
REMARK   59  A    between atoms: _189  and  _190
REMARK   60  A    between atoms: _189  and  _192
REMARK   61  A    between atoms: _192  and  _193
REMARK   62  A    between atoms: _196  and  _198
REMARK   63  A    between atoms: _198  and  _199
REMARK   64  A    between atoms: _202  and  _204
REMARK   65  A    between atoms: _204  and  _205
REMARK   66  A    between atoms: _208  and  _210
REMARK   67  A    between atoms: _210  and  _211
REMARK   68  A    between atoms: _210  and  _213
REMARK   69  A    between atoms: _213  and  _214
REMARK   70  A    between atoms: _216  and  _218
REMARK   71  A    between atoms: _218  and  _219
REMARK   72  A    between atoms: _218  and  _221
REMARK   73  A    between atoms: _221  and  _222
REMARK   74  A    between atoms: _222  and  _223
REMARK   75  A    between atoms: _222  and  _224
REMARK   76  A    between atoms: _224  and  FE_415
REMARK   77  A    between atoms: _225  and  _227
REMARK   78  A    between atoms: _227  and  _228
REMARK   79  A    between atoms: _227  and  _230
REMARK   80  A    between atoms: _230  and  _231
REMARK   81  A    between atoms: _233  and  _235
REMARK   82  A    between atoms: _235  and  _236
REMARK   83  A    between atoms: _235  and  _238
REMARK   84  A    between atoms: _238  and  _239
REMARK   85  A    between atoms: _242  and  _244
REMARK   86  A    between atoms: _244  and  _245
REMARK   87  A    between atoms: _244  and  _247
REMARK   88  A    between atoms: _247  and  _248
REMARK   89  A    between atoms: _250  and  _252
REMARK   90  A    between atoms: _252  and  _253
REMARK   91  A    between atoms: _252  and  _255
REMARK   92  A    between atoms: _255  and  _256
REMARK   93  A    between atoms: _259  and  _261
REMARK   94  A    between atoms: _261  and  _262
REMARK   95  A    between atoms: _261  and  _264
REMARK   96  A    between atoms: _264  and  _265
REMARK   97  A    between atoms: _268  and  _270
REMARK   98  A    between atoms: _270  and  _271
REMARK   99  A    between atoms: _274  and  _276
REMARK  100  A    between atoms: _276  and  _277
REMARK  101  A    between atoms: _276  and  _279
REMARK  102  A    between atoms: _279  and  _280
REMARK  103  A    between atoms: _280  and  _281
REMARK  104  A    between atoms: _281  and  _282
REMARK  105  A    between atoms: _282  and  _283
REMARK  106  A    between atoms: _287  and  _289
REMARK  107  A    between atoms: _289  and  _290
REMARK  108  A    between atoms: _289  and  _292
REMARK  109  A    between atoms: _292  and  _293
REMARK  110  A    between atoms: _299  and  _301
REMARK  111  A    between atoms: _301  and  _302
REMARK  112  A    between atoms: _301  and  _304
REMARK  113  A    between atoms: _304  and  _305
REMARK  114  A    between atoms: _308  and  _310
REMARK  115  A    between atoms: _310  and  _311
REMARK  116  A    between atoms: _310  and  _313
REMARK  117  A    between atoms: _313  and  _314
REMARK  118  A    between atoms: _314  and  _315
REMARK  119  A    between atoms: _320  and  _322
REMARK  120  A    between atoms: _322  and  _323
REMARK  121  A    between atoms: _322  and  _325
REMARK  122  A    between atoms: _328  and  _330
REMARK  123  A    between atoms: _330  and  _331
REMARK  124  A    between atoms: _330  and  _333
REMARK  125  A    between atoms: _333  and  _334
REMARK  126  A    between atoms: _336  and  _338
REMARK  127  A    between atoms: _338  and  _339
REMARK  128  A    between atoms: _338  and  _341
REMARK  129  A    between atoms: _341  and  _342
REMARK  130  A    between atoms: _342  and  _343
REMARK  131  A    between atoms: _343  and  _344
REMARK  132  A    between atoms: _353  and  _355
REMARK  133  A    between atoms: _355  and  _356
REMARK  134  A    between atoms: _355  and  _358
REMARK  135  A    between atoms: _358  and  _359
REMARK  136  A    between atoms: _359  and  _360
REMARK  137  A    between atoms: _360  and  _361
REMARK  138  A    between atoms: _361  and  _362
REMARK  139  A    between atoms: _366  and  _368
REMARK  140  A    between atoms: _368  and  _369
REMARK  141  A    between atoms: _368  and  _371
REMARK  142  A    between atoms: _371  and  _372
REMARK  143  A    between atoms: _372  and  _373
REMARK  144  A    between atoms: _373  and  _374
REMARK  145  A    between atoms: _374  and  _375
REMARK  146  A    between atoms: _379  and  _381
REMARK  147  A    between atoms: _381  and  _382
REMARK  148  A    between atoms: _381  and  _384
REMARK  149  A    between atoms: _384  and  _385
REMARK  150  A    between atoms: _385  and  _386
REMARK  151  A    between atoms: _391  and  _393
REMARK  152  A    between atoms: _393  and  _394
REMARK  153  A    between atoms: _393  and  _396
REMARK  154  A    between atoms: _399  and  _401
REMARK  155  A    between atoms: _401  and  _402
REMARK  156  A    between atoms: _401  and  _404
REMARK  157  A    between atoms: _408  and  _409
REMARK                            x       y       z     vdW  Elec       q    Type
REMARK                         _______ _______ _______ _____ _____    ______ ____
ROOT
ATOM      1  O   HOH     1     -44.050 -63.544  55.850  0.00  0.00    +0.000 OA
ENDROOT
TORSDOF 0
REMARK  Name = ../refined-set-2016/2iw4/2iw4_pocket.pdb
REMARK  157 active torsions:
REMARK  status: ('A' for Active; 'I' for Inactive)
REMARK    1  A    between atoms: _1  and  _3
REMARK    2  A    between atoms: _14  and  _17
REMARK    3  A    between atoms: _17  and  _18
REMARK    4  A    between atoms: _18  and  _19
REMARK    5  A    between atoms: _26  and  _29
REMARK    6  A    between atoms: _29  and  _30
REMARK    7  A    between atoms: _53  and  _56
REMARK    8  A    between atoms: _56  and  _57
REMARK    9  A    between atoms: _62  and  _63
REMARK   10  A    between atoms: _69  and  _71
REMARK   11  A    between atoms: _71  and  _72
REMARK   12  A    between atoms: _71  and  _74
REMARK   13  A    between atoms: _74  and  _75
REMARK   14  A    between atoms: _78  and  _80
REMARK   15  A    between atoms: _80  and  _81
REMARK   16  A    between atoms: _80  and  _83
REMARK   17  A    between atoms: _86  and  _88
REMARK   18  A    between atoms: _88  and  _89
REMARK   19  A    between atoms: _88  and  _91
REMARK   20  A    between atoms: _91  and  _92
REMARK   21  A    between atoms: _95  and  _97
REMARK   22  A    between atoms: _97  and  _98
REMARK   23  A    between atoms: _97  and  _100
REMARK   24  A    between atoms: _100  and  _101
REMARK   25  A    between atoms: _106  and  _108
REMARK   26  A    between atoms: _108  and  _109
REMARK   27  A    between atoms: _108  and  _111
REMARK   28  A    between atoms: _111  and  _112
REMARK   29  A    between atoms: _112  and  _113
REMARK   30  A    between atoms: _118  and  _120
REMARK   31  A    between atoms: _120  and  _121
REMARK   32  A    between atoms: _120  and  _123
REMARK   33  A    between atoms: _123  and  _124
REMARK   34  A    between atoms: _127  and  _129
REMARK   35  A    between atoms: _129  and  _130
REMARK   36  A    between atoms: _129  and  _132
REMARK   37  A    between atoms: _132  and  _133
REMARK   38  A    between atoms: _137  and  FE_415
REMARK   39  A    between atoms: _138  and  _140
REMARK   40  A    between atoms: _140  and  _141
REMARK   41  A    between atoms: _140  and  _143
REMARK   42  A    between atoms: _143  and  _144
REMARK   43  A    between atoms: _144  and  _145
REMARK   44  A    between atoms: _150  and  _152
REMARK   45  A    between atoms: _152  and  _153
REMARK   46  A    between atoms: _152  and  _155
REMARK   47  A    between atoms: _155  and  _156
REMARK   48  A    between atoms: _156  and  _157
REMARK   49  A    between atoms: _157  and  _158
REMARK   50  A    between atoms: _167  and  _169
REMARK   51  A    between atoms: _169  and  _170
REMARK   52  A    between atoms: _169  and  _172
REMARK   53  A    between atoms: _175  and  _177
REMARK   54  A    between atoms: _177  and  _178
REMARK   55  A    between atoms: _180  and  _182
REMARK   56  A    between atoms: _182  and  _183
REMARK   57  A    between atoms: _182  and  _185
REMARK   58  A    between atoms: _187  and  _189
REMARK   59  A    between atoms: _189  and  _190
REMARK   60  A    between atoms: _189  and  _192
REMARK   61  A    between atoms: _192  and  _193
REMARK   62  A    between atoms: _196  and  _198
REMARK   63  A    between atoms: _198  and  _199
REMARK   64  A    between atoms: _202  and  _204
REMARK   65  A    between atoms: _204  and  _205
REMARK   66  A    between atoms: _208  and  _210
REMARK   67  A    between atoms: _210  and  _211
REMARK   68  A    between atoms: _210  and  _213
REMARK   69  A    between atoms: _213  and  _214
REMARK   70  A    between atoms: _216  and  _218
REMARK   71  A    between atoms: _218  and  _219
REMARK   72  A    between atoms: _218  and  _221
REMARK   73  A    between atoms: _221  and  _222
REMARK   74  A    between atoms: _222  and  _223
REMARK   75  A    between atoms: _222  and  _224
REMARK   76  A    between atoms: _224  and  FE_415
REMARK   77  A    between atoms: _225  and  _227
REMARK   78  A    between atoms: _227  and  _228
REMARK   79  A    between atoms: _227  and  _230
REMARK   80  A    between atoms: _230  and  _231
REMARK   81  A    between atoms: _233  and  _235
REMARK   82  A    between atoms: _235  and  _236
REMARK   83  A    between atoms: _235  and  _238
REMARK   84  A    between atoms: _238  and  _239
REMARK   85  A    between atoms: _242  and  _244
REMARK   86  A    between atoms: _244  and  _245
REMARK   87  A    between atoms: _244  and  _247
REMARK   88  A    between atoms: _247  and  _248
REMARK   89  A    between atoms: _250  and  _252
REMARK   90  A    between atoms: _252  and  _253
REMARK   91  A    between atoms: _252  and  _255
REMARK   92  A    between atoms: _255  and  _256
REMARK   93  A    between atoms: _259  and  _261
REMARK   94  A    between atoms: _261  and  _262
REMARK   95  A    between atoms: _261  and  _264
REMARK   96  A    between atoms: _264  and  _265
REMARK   97  A    between atoms: _268  and  _270
REMARK   98  A    between atoms: _270  and  _271
REMARK   99  A    between atoms: _274  and  _276
REMARK  100  A    between atoms: _276  and  _277
REMARK  101  A    between atoms: _276  and  _279
REMARK  102  A    between atoms: _279  and  _280
REMARK  103  A    between atoms: _280  and  _281
REMARK  104  A    between atoms: _281  and  _282
REMARK  105  A    between atoms: _282  and  _283
REMARK  106  A    between atoms: _287  and  _289
REMARK  107  A    between atoms: _289  and  _290
REMARK  108  A    between atoms: _289  and  _292
REMARK  109  A    between atoms: _292  and  _293
REMARK  110  A    between atoms: _299  and  _301
REMARK  111  A    between atoms: _301  and  _302
REMARK  112  A    between atoms: _301  and  _304
REMARK  113  A    between atoms: _304  and  _305
REMARK  114  A    between atoms: _308  and  _310
REMARK  115  A    between atoms: _310  and  _311
REMARK  116  A    between atoms: _310  and  _313
REMARK  117  A    between atoms: _313  and  _314
REMARK  118  A    between atoms: _314  and  _315
REMARK  119  A    between atoms: _320  and  _322
REMARK  120  A    between atoms: _322  and  _323
REMARK  121  A    between atoms: _322  and  _325
REMARK  122  A    between atoms: _328  and  _330
REMARK  123  A    between atoms: _330  and  _331
REMARK  124  A    between atoms: _330  and  _333
REMARK  125  A    between atoms: _333  and  _334
REMARK  126  A    between atoms: _336  and  _338
REMARK  127  A    between atoms: _338  and  _339
REMARK  128  A    between atoms: _338  and  _341
REMARK  129  A    between atoms: _341  and  _342
REMARK  130  A    between atoms: _342  and  _343
REMARK  131  A    between atoms: _343  and  _344
REMARK  132  A    between atoms: _353  and  _355
REMARK  133  A    between atoms: _355  and  _356
REMARK  134  A    between atoms: _355  and  _358
REMARK  135  A    between atoms: _358  and  _359
REMARK  136  A    between atoms: _359  and  _360
REMARK  137  A    between atoms: _360  and  _361
REMARK  138  A    between atoms: _361  and  _362
REMARK  139  A    between atoms: _366  and  _368
REMARK  140  A    between atoms: _368  and  _369
REMARK  141  A    between atoms: _368  and  _371
REMARK  142  A    between atoms: _371  and  _372
REMARK  143  A    between atoms: _372  and  _373
REMARK  144  A    between atoms: _373  and  _374
REMARK  145  A    between atoms: _374  and  _375
REMARK  146  A    between atoms: _379  and  _381
REMARK  147  A    between atoms: _381  and  _382
REMARK  148  A    between atoms: _381  and  _384
REMARK  149  A    between atoms: _384  and  _385
REMARK  150  A    between atoms: _385  and  _386
REMARK  151  A    between atoms: _391  and  _393
REMARK  152  A    between atoms: _393  and  _394
REMARK  153  A    between atoms: _393  and  _396
REMARK  154  A    between atoms: _399  and  _401
REMARK  155  A    between atoms: _401  and  _402
REMARK  156  A    between atoms: _401  and  _404
REMARK  157  A    between atoms: _408  and  _409
REMARK                            x       y       z     vdW  Elec       q    Type
REMARK                         _______ _______ _______ _____ _____    ______ ____
ROOT
ATOM      1  O   HOH     1     -49.397 -69.954  53.997  0.00  0.00    +0.000 OA
ENDROOT
TORSDOF 0
REMARK  Name = ../refined-set-2016/2iw4/2iw4_pocket.pdb
REMARK  157 active torsions:
REMARK  status: ('A' for Active; 'I' for Inactive)
REMARK    1  A    between atoms: _1  and  _3
REMARK    2  A    between atoms: _14  and  _17
REMARK    3  A    between atoms: _17  and  _18
REMARK    4  A    between atoms: _18  and  _19
REMARK    5  A    between atoms: _26  and  _29
REMARK    6  A    between atoms: _29  and  _30
REMARK    7  A    between atoms: _53  and  _56
REMARK    8  A    between atoms: _56  and  _57
REMARK    9  A    between atoms: _62  and  _63
REMARK   10  A    between atoms: _69  and  _71
REMARK   11  A    between atoms: _71  and  _72
REMARK   12  A    between atoms: _71  and  _74
REMARK   13  A    between atoms: _74  and  _75
REMARK   14  A    between atoms: _78  and  _80
REMARK   15  A    between atoms: _80  and  _81
REMARK   16  A    between atoms: _80  and  _83
REMARK   17  A    between atoms: _86  and  _88
REMARK   18  A    between atoms: _88  and  _89
REMARK   19  A    between atoms: _88  and  _91
REMARK   20  A    between atoms: _91  and  _92
REMARK   21  A    between atoms: _95  and  _97
REMARK   22  A    between atoms: _97  and  _98
REMARK   23  A    between atoms: _97  and  _100
REMARK   24  A    between atoms: _100  and  _101
REMARK   25  A    between atoms: _106  and  _108
REMARK   26  A    between atoms: _108  and  _109
REMARK   27  A    between atoms: _108  and  _111
REMARK   28  A    between atoms: _111  and  _112
REMARK   29  A    between atoms: _112  and  _113
REMARK   30  A    between atoms: _118  and  _120
REMARK   31  A    between atoms: _120  and  _121
REMARK   32  A    between atoms: _120  and  _123
REMARK   33  A    between atoms: _123  and  _124
REMARK   34  A    between atoms: _127  and  _129
REMARK   35  A    between atoms: _129  and  _130
REMARK   36  A    between atoms: _129  and  _132
REMARK   37  A    between atoms: _132  and  _133
REMARK   38  A    between atoms: _137  and  FE_415
REMARK   39  A    between atoms: _138  and  _140
REMARK   40  A    between atoms: _140  and  _141
REMARK   41  A    between atoms: _140  and  _143
REMARK   42  A    between atoms: _143  and  _144
REMARK   43  A    between atoms: _144  and  _145
REMARK   44  A    between atoms: _150  and  _152
REMARK   45  A    between atoms: _152  and  _153
REMARK   46  A    between atoms: _152  and  _155
REMARK   47  A    between atoms: _155  and  _156
REMARK   48  A    between atoms: _156  and  _157
REMARK   49  A    between atoms: _157  and  _158
REMARK   50  A    between atoms: _167  and  _169
REMARK   51  A    between atoms: _169  and  _170
REMARK   52  A    between atoms: _169  and  _172
REMARK   53  A    between atoms: _175  and  _177
REMARK   54  A    between atoms: _177  and  _178
REMARK   55  A    between atoms: _180  and  _182
REMARK   56  A    between atoms: _182  and  _183
REMARK   57  A    between atoms: _182  and  _185
REMARK   58  A    between atoms: _187  and  _189
REMARK   59  A    between atoms: _189  and  _190
REMARK   60  A    between atoms: _189  and  _192
REMARK   61  A    between atoms: _192  and  _193
REMARK   62  A    between atoms: _196  and  _198
REMARK   63  A    between atoms: _198  and  _199
REMARK   64  A    between atoms: _202  and  _204
REMARK   65  A    between atoms: _204  and  _205
REMARK   66  A    between atoms: _208  and  _210
REMARK   67  A    between atoms: _210  and  _211
REMARK   68  A    between atoms: _210  and  _213
REMARK   69  A    between atoms: _213  and  _214
REMARK   70  A    between atoms: _216  and  _218
REMARK   71  A    between atoms: _218  and  _219
REMARK   72  A    between atoms: _218  and  _221
REMARK   73  A    between atoms: _221  and  _222
REMARK   74  A    between atoms: _222  and  _223
REMARK   75  A    between atoms: _222  and  _224
REMARK   76  A    between atoms: _224  and  FE_415
REMARK   77  A    between atoms: _225  and  _227
REMARK   78  A    between atoms: _227  and  _228
REMARK   79  A    between atoms: _227  and  _230
REMARK   80  A    between atoms: _230  and  _231
REMARK   81  A    between atoms: _233  and  _235
REMARK   82  A    between atoms: _235  and  _236
REMARK   83  A    between atoms: _235  and  _238
REMARK   84  A    between atoms: _238  and  _239
REMARK   85  A    between atoms: _242  and  _244
REMARK   86  A    between atoms: _244  and  _245
REMARK   87  A    between atoms: _244  and  _247
REMARK   88  A    between atoms: _247  and  _248
REMARK   89  A    between atoms: _250  and  _252
REMARK   90  A    between atoms: _252  and  _253
REMARK   91  A    between atoms: _252  and  _255
REMARK   92  A    between atoms: _255  and  _256
REMARK   93  A    between atoms: _259  and  _261
REMARK   94  A    between atoms: _261  and  _262
REMARK   95  A    between atoms: _261  and  _264
REMARK   96  A    between atoms: _264  and  _265
REMARK   97  A    between atoms: _268  and  _270
REMARK   98  A    between atoms: _270  and  _271
REMARK   99  A    between atoms: _274  and  _276
REMARK  100  A    between atoms: _276  and  _277
REMARK  101  A    between atoms: _276  and  _279
REMARK  102  A    between atoms: _279  and  _280
REMARK  103  A    between atoms: _280  and  _281
REMARK  104  A    between atoms: _281  and  _282
REMARK  105  A    between atoms: _282  and  _283
REMARK  106  A    between atoms: _287  and  _289
REMARK  107  A    between atoms: _289  and  _290
REMARK  108  A    between atoms: _289  and  _292
REMARK  109  A    between atoms: _292  and  _293
REMARK  110  A    between atoms: _299  and  _301
REMARK  111  A    between atoms: _301  and  _302
REMARK  112  A    between atoms: _301  and  _304
REMARK  113  A    between atoms: _304  and  _305
REMARK  114  A    between atoms: _308  and  _310
REMARK  115  A    between atoms: _310  and  _311
REMARK  116  A    between atoms: _310  and  _313
REMARK  117  A    between atoms: _313  and  _314
REMARK  118  A    between atoms: _314  and  _315
REMARK  119  A    between atoms: _320  and  _322
REMARK  120  A    between atoms: _322  and  _323
REMARK  121  A    between atoms: _322  and  _325
REMARK  122  A    between atoms: _328  and  _330
REMARK  123  A    between atoms: _330  and  _331
REMARK  124  A    between atoms: _330  and  _333
REMARK  125  A    between atoms: _333  and  _334
REMARK  126  A    between atoms: _336  and  _338
REMARK  127  A    between atoms: _338  and  _339
REMARK  128  A    between atoms: _338  and  _341
REMARK  129  A    between atoms: _341  and  _342
REMARK  130  A    between atoms: _342  and  _343
REMARK  131  A    between atoms: _343  and  _344
REMARK  132  A    between atoms: _353  and  _355
REMARK  133  A    between atoms: _355  and  _356
REMARK  134  A    between atoms: _355  and  _358
REMARK  135  A    between atoms: _358  and  _359
REMARK  136  A    between atoms: _359  and  _360
REMARK  137  A    between atoms: _360  and  _361
REMARK  138  A    between atoms: _361  and  _362
REMARK  139  A    between atoms: _366  and  _368
REMARK  140  A    between atoms: _368  and  _369
REMARK  141  A    between atoms: _368  and  _371
REMARK  142  A    between atoms: _371  and  _372
REMARK  143  A    between atoms: _372  and  _373
REMARK  144  A    between atoms: _373  and  _374
REMARK  145  A    between atoms: _374  and  _375
REMARK  146  A    between atoms: _379  and  _381
REMARK  147  A    between atoms: _381  and  _382
REMARK  148  A    between atoms: _381  and  _384
REMARK  149  A    between atoms: _384  and  _385
REMARK  150  A    between atoms: _385  and  _386
REMARK  151  A    between atoms: _391  and  _393
REMARK  152  A    between atoms: _393  and  _394
REMARK  153  A    between atoms: _393  and  _396
REMARK  154  A    between atoms: _399  and  _401
REMARK  155  A    between atoms: _401  and  _402
REMARK  156  A    between atoms: _401  and  _404
REMARK  157  A    between atoms: _408  and  _409
REMARK                            x       y       z     vdW  Elec       q    Type
REMARK                         _______ _______ _______ _____ _____    ______ ____
ROOT
ATOM      1  O   HOH     1     -40.962 -63.530  54.728  0.00  0.00    +0.000 OA
ENDROOT
TORSDOF 0
REMARK  Name = ../refined-set-2016/2iw4/2iw4_pocket.pdb
REMARK  157 active torsions:
REMARK  status: ('A' for Active; 'I' for Inactive)
REMARK    1  A    between atoms: _1  and  _3
REMARK    2  A    between atoms: _14  and  _17
REMARK    3  A    between atoms: _17  and  _18
REMARK    4  A    between atoms: _18  and  _19
REMARK    5  A    between atoms: _26  and  _29
REMARK    6  A    between atoms: _29  and  _30
REMARK    7  A    between atoms: _53  and  _56
REMARK    8  A    between atoms: _56  and  _57
REMARK    9  A    between atoms: _62  and  _63
REMARK   10  A    between atoms: _69  and  _71
REMARK   11  A    between atoms: _71  and  _72
REMARK   12  A    between atoms: _71  and  _74
REMARK   13  A    between atoms: _74  and  _75
REMARK   14  A    between atoms: _78  and  _80
REMARK   15  A    between atoms: _80  and  _81
REMARK   16  A    between atoms: _80  and  _83
REMARK   17  A    between atoms: _86  and  _88
REMARK   18  A    between atoms: _88  and  _89
REMARK   19  A    between atoms: _88  and  _91
REMARK   20  A    between atoms: _91  and  _92
REMARK   21  A    between atoms: _95  and  _97
REMARK   22  A    between atoms: _97  and  _98
REMARK   23  A    between atoms: _97  and  _100
REMARK   24  A    between atoms: _100  and  _101
REMARK   25  A    between atoms: _106  and  _108
REMARK   26  A    between atoms: _108  and  _109
REMARK   27  A    between atoms: _108  and  _111
REMARK   28  A    between atoms: _111  and  _112
REMARK   29  A    between atoms: _112  and  _113
REMARK   30  A    between atoms: _118  and  _120
REMARK   31  A    between atoms: _120  and  _121
REMARK   32  A    between atoms: _120  and  _123
REMARK   33  A    between atoms: _123  and  _124
REMARK   34  A    between atoms: _127  and  _129
REMARK   35  A    between atoms: _129  and  _130
REMARK   36  A    between atoms: _129  and  _132
REMARK   37  A    between atoms: _132  and  _133
REMARK   38  A    between atoms: _137  and  FE_415
REMARK   39  A    between atoms: _138  and  _140
REMARK   40  A    between atoms: _140  and  _141
REMARK   41  A    between atoms: _140  and  _143
REMARK   42  A    between atoms: _143  and  _144
REMARK   43  A    between atoms: _144  and  _145
REMARK   44  A    between atoms: _150  and  _152
REMARK   45  A    between atoms: _152  and  _153
REMARK   46  A    between atoms: _152  and  _155
REMARK   47  A    between atoms: _155  and  _156
REMARK   48  A    between atoms: _156  and  _157
REMARK   49  A    between atoms: _157  and  _158
REMARK   50  A    between atoms: _167  and  _169
REMARK   51  A    between atoms: _169  and  _170
REMARK   52  A    between atoms: _169  and  _172
REMARK   53  A    between atoms: _175  and  _177
REMARK   54  A    between atoms: _177  and  _178
REMARK   55  A    between atoms: _180  and  _182
REMARK   56  A    between atoms: _182  and  _183
REMARK   57  A    between atoms: _182  and  _185
REMARK   58  A    between atoms: _187  and  _189
REMARK   59  A    between atoms: _189  and  _190
REMARK   60  A    between atoms: _189  and  _192
REMARK   61  A    between atoms: _192  and  _193
REMARK   62  A    between atoms: _196  and  _198
REMARK   63  A    between atoms: _198  and  _199
REMARK   64  A    between atoms: _202  and  _204
REMARK   65  A    between atoms: _204  and  _205
REMARK   66  A    between atoms: _208  and  _210
REMARK   67  A    between atoms: _210  and  _211
REMARK   68  A    between atoms: _210  and  _213
REMARK   69  A    between atoms: _213  and  _214
REMARK   70  A    between atoms: _216  and  _218
REMARK   71  A    between atoms: _218  and  _219
REMARK   72  A    between atoms: _218  and  _221
REMARK   73  A    between atoms: _221  and  _222
REMARK   74  A    between atoms: _222  and  _223
REMARK   75  A    between atoms: _222  and  _224
REMARK   76  A    between atoms: _224  and  FE_415
REMARK   77  A    between atoms: _225  and  _227
REMARK   78  A    between atoms: _227  and  _228
REMARK   79  A    between atoms: _227  and  _230
REMARK   80  A    between atoms: _230  and  _231
REMARK   81  A    between atoms: _233  and  _235
REMARK   82  A    between atoms: _235  and  _236
REMARK   83  A    between atoms: _235  and  _238
REMARK   84  A    between atoms: _238  and  _239
REMARK   85  A    between atoms: _242  and  _244
REMARK   86  A    between atoms: _244  and  _245
REMARK   87  A    between atoms: _244  and  _247
REMARK   88  A    between atoms: _247  and  _248
REMARK   89  A    between atoms: _250  and  _252
REMARK   90  A    between atoms: _252  and  _253
REMARK   91  A    between atoms: _252  and  _255
REMARK   92  A    between atoms: _255  and  _256
REMARK   93  A    between atoms: _259  and  _261
REMARK   94  A    between atoms: _261  and  _262
REMARK   95  A    between atoms: _261  and  _264
REMARK   96  A    between atoms: _264  and  _265
REMARK   97  A    between atoms: _268  and  _270
REMARK   98  A    between atoms: _270  and  _271
REMARK   99  A    between atoms: _274  and  _276
REMARK  100  A    between atoms: _276  and  _277
REMARK  101  A    between atoms: _276  and  _279
REMARK  102  A    between atoms: _279  and  _280
REMARK  103  A    between atoms: _280  and  _281
REMARK  104  A    between atoms: _281  and  _282
REMARK  105  A    between atoms: _282  and  _283
REMARK  106  A    between atoms: _287  and  _289
REMARK  107  A    between atoms: _289  and  _290
REMARK  108  A    between atoms: _289  and  _292
REMARK  109  A    between atoms: _292  and  _293
REMARK  110  A    between atoms: _299  and  _301
REMARK  111  A    between atoms: _301  and  _302
REMARK  112  A    between atoms: _301  and  _304
REMARK  113  A    between atoms: _304  and  _305
REMARK  114  A    between atoms: _308  and  _310
REMARK  115  A    between atoms: _310  and  _311
REMARK  116  A    between atoms: _310  and  _313
REMARK  117  A    between atoms: _313  and  _314
REMARK  118  A    between atoms: _314  and  _315
REMARK  119  A    between atoms: _320  and  _322
REMARK  120  A    between atoms: _322  and  _323
REMARK  121  A    between atoms: _322  and  _325
REMARK  122  A    between atoms: _328  and  _330
REMARK  123  A    between atoms: _330  and  _331
REMARK  124  A    between atoms: _330  and  _333
REMARK  125  A    between atoms: _333  and  _334
REMARK  126  A    between atoms: _336  and  _338
REMARK  127  A    between atoms: _338  and  _339
REMARK  128  A    between atoms: _338  and  _341
REMARK  129  A    between atoms: _341  and  _342
REMARK  130  A    between atoms: _342  and  _343
REMARK  131  A    between atoms: _343  and  _344
REMARK  132  A    between atoms: _353  and  _355
REMARK  133  A    between atoms: _355  and  _356
REMARK  134  A    between atoms: _355  and  _358
REMARK  135  A    between atoms: _358  and  _359
REMARK  136  A    between atoms: _359  and  _360
REMARK  137  A    between atoms: _360  and  _361
REMARK  138  A    between atoms: _361  and  _362
REMARK  139  A    between atoms: _366  and  _368
REMARK  140  A    between atoms: _368  and  _369
REMARK  141  A    between atoms: _368  and  _371
REMARK  142  A    between atoms: _371  and  _372
REMARK  143  A    between atoms: _372  and  _373
REMARK  144  A    between atoms: _373  and  _374
REMARK  145  A    between atoms: _374  and  _375
REMARK  146  A    between atoms: _379  and  _381
REMARK  147  A    between atoms: _381  and  _382
REMARK  148  A    between atoms: _381  and  _384
REMARK  149  A    between atoms: _384  and  _385
REMARK  150  A    between atoms: _385  and  _386
REMARK  151  A    between atoms: _391  and  _393
REMARK  152  A    between atoms: _393  and  _394
REMARK  153  A    between atoms: _393  and  _396
REMARK  154  A    between atoms: _399  and  _401
REMARK  155  A    between atoms: _401  and  _402
REMARK  156  A    between atoms: _401  and  _404
REMARK  157  A    between atoms: _408  and  _409
REMARK                            x       y       z     vdW  Elec       q    Type
REMARK                         _______ _______ _______ _____ _____    ______ ____
ROOT
ATOM      1  O   HOH     1     -45.708 -67.858  51.092  0.00  0.00    +0.000 OA
ENDROOT
TORSDOF 0
REMARK  Name = ../refined-set-2016/2iw4/2iw4_pocket.pdb
REMARK  157 active torsions:
REMARK  status: ('A' for Active; 'I' for Inactive)
REMARK    1  A    between atoms: _1  and  _3
REMARK    2  A    between atoms: _14  and  _17
REMARK    3  A    between atoms: _17  and  _18
REMARK    4  A    between atoms: _18  and  _19
REMARK    5  A    between atoms: _26  and  _29
REMARK    6  A    between atoms: _29  and  _30
REMARK    7  A    between atoms: _53  and  _56
REMARK    8  A    between atoms: _56  and  _57
REMARK    9  A    between atoms: _62  and  _63
REMARK   10  A    between atoms: _69  and  _71
REMARK   11  A    between atoms: _71  and  _72
REMARK   12  A    between atoms: _71  and  _74
REMARK   13  A    between atoms: _74  and  _75
REMARK   14  A    between atoms: _78  and  _80
REMARK   15  A    between atoms: _80  and  _81
REMARK   16  A    between atoms: _80  and  _83
REMARK   17  A    between atoms: _86  and  _88
REMARK   18  A    between atoms: _88  and  _89
REMARK   19  A    between atoms: _88  and  _91
REMARK   20  A    between atoms: _91  and  _92
REMARK   21  A    between atoms: _95  and  _97
REMARK   22  A    between atoms: _97  and  _98
REMARK   23  A    between atoms: _97  and  _100
REMARK   24  A    between atoms: _100  and  _101
REMARK   25  A    between atoms: _106  and  _108
REMARK   26  A    between atoms: _108  and  _109
REMARK   27  A    between atoms: _108  and  _111
REMARK   28  A    between atoms: _111  and  _112
REMARK   29  A    between atoms: _112  and  _113
REMARK   30  A    between atoms: _118  and  _120
REMARK   31  A    between atoms: _120  and  _121
REMARK   32  A    between atoms: _120  and  _123
REMARK   33  A    between atoms: _123  and  _124
REMARK   34  A    between atoms: _127  and  _129
REMARK   35  A    between atoms: _129  and  _130
REMARK   36  A    between atoms: _129  and  _132
REMARK   37  A    between atoms: _132  and  _133
REMARK   38  A    between atoms: _137  and  FE_415
REMARK   39  A    between atoms: _138  and  _140
REMARK   40  A    between atoms: _140  and  _141
REMARK   41  A    between atoms: _140  and  _143
REMARK   42  A    between atoms: _143  and  _144
REMARK   43  A    between atoms: _144  and  _145
REMARK   44  A    between atoms: _150  and  _152
REMARK   45  A    between atoms: _152  and  _153
REMARK   46  A    between atoms: _152  and  _155
REMARK   47  A    between atoms: _155  and  _156
REMARK   48  A    between atoms: _156  and  _157
REMARK   49  A    between atoms: _157  and  _158
REMARK   50  A    between atoms: _167  and  _169
REMARK   51  A    between atoms: _169  and  _170
REMARK   52  A    between atoms: _169  and  _172
REMARK   53  A    between atoms: _175  and  _177
REMARK   54  A    between atoms: _177  and  _178
REMARK   55  A    between atoms: _180  and  _182
REMARK   56  A    between atoms: _182  and  _183
REMARK   57  A    between atoms: _182  and  _185
REMARK   58  A    between atoms: _187  and  _189
REMARK   59  A    between atoms: _189  and  _190
REMARK   60  A    between atoms: _189  and  _192
REMARK   61  A    between atoms: _192  and  _193
REMARK   62  A    between atoms: _196  and  _198
REMARK   63  A    between atoms: _198  and  _199
REMARK   64  A    between atoms: _202  and  _204
REMARK   65  A    between atoms: _204  and  _205
REMARK   66  A    between atoms: _208  and  _210
REMARK   67  A    between atoms: _210  and  _211
REMARK   68  A    between atoms: _210  and  _213
REMARK   69  A    between atoms: _213  and  _214
REMARK   70  A    between atoms: _216  and  _218
REMARK   71  A    between atoms: _218  and  _219
REMARK   72  A    between atoms: _218  and  _221
REMARK   73  A    between atoms: _221  and  _222
REMARK   74  A    between atoms: _222  and  _223
REMARK   75  A    between atoms: _222  and  _224
REMARK   76  A    between atoms: _224  and  FE_415
REMARK   77  A    between atoms: _225  and  _227
REMARK   78  A    between atoms: _227  and  _228
REMARK   79  A    between atoms: _227  and  _230
REMARK   80  A    between atoms: _230  and  _231
REMARK   81  A    between atoms: _233  and  _235
REMARK   82  A    between atoms: _235  and  _236
REMARK   83  A    between atoms: _235  and  _238
REMARK   84  A    between atoms: _238  and  _239
REMARK   85  A    between atoms: _242  and  _244
REMARK   86  A    between atoms: _244  and  _245
REMARK   87  A    between atoms: _244  and  _247
REMARK   88  A    between atoms: _247  and  _248
REMARK   89  A    between atoms: _250  and  _252
REMARK   90  A    between atoms: _252  and  _253
REMARK   91  A    between atoms: _252  and  _255
REMARK   92  A    between atoms: _255  and  _256
REMARK   93  A    between atoms: _259  and  _261
REMARK   94  A    between atoms: _261  and  _262
REMARK   95  A    between atoms: _261  and  _264
REMARK   96  A    between atoms: _264  and  _265
REMARK   97  A    between atoms: _268  and  _270
REMARK   98  A    between atoms: _270  and  _271
REMARK   99  A    between atoms: _274  and  _276
REMARK  100  A    between atoms: _276  and  _277
REMARK  101  A    between atoms: _276  and  _279
REMARK  102  A    between atoms: _279  and  _280
REMARK  103  A    between atoms: _280  and  _281
REMARK  104  A    between atoms: _281  and  _282
REMARK  105  A    between atoms: _282  and  _283
REMARK  106  A    between atoms: _287  and  _289
REMARK  107  A    between atoms: _289  and  _290
REMARK  108  A    between atoms: _289  and  _292
REMARK  109  A    between atoms: _292  and  _293
REMARK  110  A    between atoms: _299  and  _301
REMARK  111  A    between atoms: _301  and  _302
REMARK  112  A    between atoms: _301  and  _304
REMARK  113  A    between atoms: _304  and  _305
REMARK  114  A    between atoms: _308  and  _310
REMARK  115  A    between atoms: _310  and  _311
REMARK  116  A    between atoms: _310  and  _313
REMARK  117  A    between atoms: _313  and  _314
REMARK  118  A    between atoms: _314  and  _315
REMARK  119  A    between atoms: _320  and  _322
REMARK  120  A    between atoms: _322  and  _323
REMARK  121  A    between atoms: _322  and  _325
REMARK  122  A    between atoms: _328  and  _330
REMARK  123  A    between atoms: _330  and  _331
REMARK  124  A    between atoms: _330  and  _333
REMARK  125  A    between atoms: _333  and  _334
REMARK  126  A    between atoms: _336  and  _338
REMARK  127  A    between atoms: _338  and  _339
REMARK  128  A    between atoms: _338  and  _341
REMARK  129  A    between atoms: _341  and  _342
REMARK  130  A    between atoms: _342  and  _343
REMARK  131  A    between atoms: _343  and  _344
REMARK  132  A    between atoms: _353  and  _355
REMARK  133  A    between atoms: _355  and  _356
REMARK  134  A    between atoms: _355  and  _358
REMARK  135  A    between atoms: _358  and  _359
REMARK  136  A    between atoms: _359  and  _360
REMARK  137  A    between atoms: _360  and  _361
REMARK  138  A    between atoms: _361  and  _362
REMARK  139  A    between atoms: _366  and  _368
REMARK  140  A    between atoms: _368  and  _369
REMARK  141  A    between atoms: _368  and  _371
REMARK  142  A    between atoms: _371  and  _372
REMARK  143  A    between atoms: _372  and  _373
REMARK  144  A    between atoms: _373  and  _374
REMARK  145  A    between atoms: _374  and  _375
REMARK  146  A    between atoms: _379  and  _381
REMARK  147  A    between atoms: _381  and  _382
REMARK  148  A    between atoms: _381  and  _384
REMARK  149  A    between atoms: _384  and  _385
REMARK  150  A    between atoms: _385  and  _386
REMARK  151  A    between atoms: _391  and  _393
REMARK  152  A    between atoms: _393  and  _394
REMARK  153  A    between atoms: _393  and  _396
REMARK  154  A    between atoms: _399  and  _401
REMARK  155  A    between atoms: _401  and  _402
REMARK  156  A    between atoms: _401  and  _404
REMARK  157  A    between atoms: _408  and  _409
REMARK                            x       y       z     vdW  Elec       q    Type
REMARK                         _______ _______ _______ _____ _____    ______ ____
ROOT
ATOM      1  O   HOH     1     -40.084 -60.862  51.704  0.00  0.00    +0.000 OA
ENDROOT
TORSDOF 0
