REMARK  Name = ../refined-set-2016/3c2r/3c2r_pocket.pdb
REMARK  174 active torsions:
REMARK  status: ('A' for Active; 'I' for Inactive)
REMARK    1  A    between atoms: _1  and  _3
REMARK    2  A    between atoms: _3  and  _4
REMARK    3  A    between atoms: _7  and  _9
REMARK    4  A    between atoms: _9  and  _10
REMARK    5  A    between atoms: _12  and  _14
REMARK    6  A    between atoms: _14  and  _15
REMARK    7  A    between atoms: _14  and  _17
REMARK    8  A    between atoms: _17  and  _18
REMARK    9  A    between atoms: _21  and  _23
REMARK   10  A    between atoms: _23  and  _24
REMARK   11  A    between atoms: _23  and  _26
REMARK   12  A    between atoms: _26  and  _27
REMARK   13  A    between atoms: _27  and  _28
REMARK   14  A    between atoms: _28  and  _29
REMARK   15  A    between atoms: _38  and  _40
REMARK   16  A    between atoms: _40  and  _41
REMARK   17  A    between atoms: _40  and  _43
REMARK   18  A    between atoms: _43  and  _44
REMARK   19  A    between atoms: _44  and  _45
REMARK   20  A    between atoms: _45  and  _46
REMARK   21  A    between atoms: _46  and  _47
REMARK   22  A    between atoms: _51  and  _53
REMARK   23  A    between atoms: _53  and  _54
REMARK   24  A    between atoms: _53  and  _56
REMARK   25  A    between atoms: _56  and  _57
REMARK   26  A    between atoms: _60  and  _62
REMARK   27  A    between atoms: _62  and  _63
REMARK   28  A    between atoms: _62  and  _65
REMARK   29  A    between atoms: _65  and  _66
REMARK   30  A    between atoms: _66  and  _67
REMARK   31  A    between atoms: _67  and  _68
REMARK   32  A    between atoms: _77  and  _79
REMARK   33  A    between atoms: _79  and  _80
REMARK   34  A    between atoms: _79  and  _82
REMARK   35  A    between atoms: _82  and  _83
REMARK   36  A    between atoms: _83  and  _84
REMARK   37  A    between atoms: _84  and  _85
REMARK   38  A    between atoms: _85  and  _86
REMARK   39  A    between atoms: _90  and  _92
REMARK   40  A    between atoms: _92  and  _93
REMARK   41  A    between atoms: _92  and  _95
REMARK   42  A    between atoms: _95  and  _96
REMARK   43  A    between atoms: _99  and  _101
REMARK   44  A    between atoms: _101  and  _102
REMARK   45  A    between atoms: _101  and  _104
REMARK   46  A    between atoms: _104  and  _105
REMARK   47  A    between atoms: _110  and  _112
REMARK   48  A    between atoms: _112  and  _113
REMARK   49  A    between atoms: _112  and  _115
REMARK   50  A    between atoms: _115  and  _116
REMARK   51  A    between atoms: _116  and  _117
REMARK   52  A    between atoms: _117  and  _118
REMARK   53  A    between atoms: _127  and  _129
REMARK   54  A    between atoms: _129  and  _130
REMARK   55  A    between atoms: _129  and  _132
REMARK   56  A    between atoms: _132  and  _133
REMARK   57  A    between atoms: _138  and  _139
REMARK   58  A    between atoms: _141  and  _143
REMARK   59  A    between atoms: _143  and  _144
REMARK   60  A    between atoms: _143  and  _146
REMARK   61  A    between atoms: _146  and  _147
REMARK   62  A    between atoms: _150  and  _152
REMARK   63  A    between atoms: _152  and  _153
REMARK   64  A    between atoms: _152  and  _155
REMARK   65  A    between atoms: _155  and  _156
REMARK   66  A    between atoms: _159  and  _161
REMARK   67  A    between atoms: _161  and  _162
REMARK   68  A    between atoms: _161  and  _164
REMARK   69  A    between atoms: _164  and  _165
REMARK   70  A    between atoms: _167  and  _169
REMARK   71  A    between atoms: _169  and  _170
REMARK   72  A    between atoms: _169  and  _172
REMARK   73  A    between atoms: _172  and  _173
REMARK   74  A    between atoms: _173  and  _174
REMARK   75  A    between atoms: _176  and  _178
REMARK   76  A    between atoms: _178  and  _179
REMARK   77  A    between atoms: _178  and  _181
REMARK   78  A    between atoms: _181  and  _182
REMARK   79  A    between atoms: _182  and  _183
REMARK   80  A    between atoms: _185  and  _187
REMARK   81  A    between atoms: _187  and  _188
REMARK   82  A    between atoms: _187  and  _190
REMARK   83  A    between atoms: _190  and  _191
REMARK   84  A    between atoms: _191  and  _192
REMARK   85  A    between atoms: _192  and  _193
REMARK   86  A    between atoms: _193  and  _194
REMARK   87  A    between atoms: _198  and  _200
REMARK   88  A    between atoms: _200  and  _201
REMARK   89  A    between atoms: _200  and  _203
REMARK   90  A    between atoms: _203  and  _204
REMARK   91  A    between atoms: _204  and  _205
REMARK   92  A    between atoms: _208  and  _210
REMARK   93  A    between atoms: _210  and  _211
REMARK   94  A    between atoms: _210  and  _213
REMARK   95  A    between atoms: _213  and  _214
REMARK   96  A    between atoms: _214  and  _215
REMARK   97  A    between atoms: _218  and  _220
REMARK   98  A    between atoms: _220  and  _221
REMARK   99  A    between atoms: _220  and  _223
REMARK  100  A    between atoms: _223  and  _224
REMARK  101  A    between atoms: _224  and  _225
REMARK  102  A    between atoms: _227  and  _229
REMARK  103  A    between atoms: _229  and  _230
REMARK  104  A    between atoms: _229  and  _232
REMARK  105  A    between atoms: _232  and  _233
REMARK  106  A    between atoms: _233  and  _234
REMARK  107  A    between atoms: _237  and  _239
REMARK  108  A    between atoms: _239  and  _240
REMARK  109  A    between atoms: _239  and  _242
REMARK  110  A    between atoms: _244  and  _246
REMARK  111  A    between atoms: _246  and  _247
REMARK  112  A    between atoms: _246  and  _249
REMARK  113  A    between atoms: _249  and  _250
REMARK  114  A    between atoms: _252  and  _254
REMARK  115  A    between atoms: _254  and  _255
REMARK  116  A    between atoms: _257  and  _259
REMARK  117  A    between atoms: _259  and  _260
REMARK  118  A    between atoms: _259  and  _262
REMARK  119  A    between atoms: _262  and  _263
REMARK  120  A    between atoms: _266  and  _268
REMARK  121  A    between atoms: _268  and  _269
REMARK  122  A    between atoms: _268  and  _271
REMARK  123  A    between atoms: _271  and  _272
REMARK  124  A    between atoms: _277  and  _278
REMARK  125  A    between atoms: _280  and  _282
REMARK  126  A    between atoms: _282  and  _283
REMARK  127  A    between atoms: _282  and  _285
REMARK  128  A    between atoms: _285  and  _286
REMARK  129  A    between atoms: _288  and  _290
REMARK  130  A    between atoms: _290  and  _291
REMARK  131  A    between atoms: _290  and  _293
REMARK  132  A    between atoms: _293  and  _294
REMARK  133  A    between atoms: _297  and  _299
REMARK  134  A    between atoms: _299  and  _300
REMARK  135  A    between atoms: _299  and  _302
REMARK  136  A    between atoms: _302  and  _303
REMARK  137  A    between atoms: _305  and  _307
REMARK  138  A    between atoms: _307  and  _308
REMARK  139  A    between atoms: _307  and  _310
REMARK  140  A    between atoms: _310  and  _311
REMARK  141  A    between atoms: _316  and  _318
REMARK  142  A    between atoms: _318  and  _319
REMARK  143  A    between atoms: _318  and  _321
REMARK  144  A    between atoms: _321  and  _322
REMARK  145  A    between atoms: _325  and  _327
REMARK  146  A    between atoms: _327  and  _328
REMARK  147  A    between atoms: _327  and  _330
REMARK  148  A    between atoms: _330  and  _331
REMARK  149  A    between atoms: _331  and  _332
REMARK  150  A    between atoms: _335  and  _337
REMARK  151  A    between atoms: _337  and  _338
REMARK  152  A    between atoms: _337  and  _340
REMARK  153  A    between atoms: _340  and  _341
REMARK  154  A    between atoms: _341  and  _342
REMARK  155  A    between atoms: _342  and  _343
REMARK  156  A    between atoms: _352  and  _354
REMARK  157  A    between atoms: _354  and  _355
REMARK  158  A    between atoms: _354  and  _357
REMARK  159  A    between atoms: _357  and  _358
REMARK  160  A    between atoms: _361  and  _363
REMARK  161  A    between atoms: _363  and  _364
REMARK  162  A    between atoms: _363  and  _366
REMARK  163  A    between atoms: _366  and  _367
REMARK  164  A    between atoms: _372  and  _374
REMARK  165  A    between atoms: _374  and  _375
REMARK  166  A    between atoms: _374  and  _377
REMARK  167  A    between atoms: _377  and  _378
REMARK  168  A    between atoms: _378  and  _379
REMARK  169  A    between atoms: _379  and  _380
REMARK  170  A    between atoms: _380  and  _381
REMARK  171  A    between atoms: _385  and  _387
REMARK  172  A    between atoms: _387  and  _388
REMARK  173  A    between atoms: _387  and  _390
REMARK  174  A    between atoms: _390  and  _391
REMARK                            x       y       z     vdW  Elec       q    Type
REMARK                         _______ _______ _______ _____ _____    ______ ____
ROOT
ATOM      1  CA  ARG A   4     -20.750 -12.747  25.738  0.00  0.00    +0.149 C 
ENDROOT
BRANCH   1   4
ATOM      2  C   THR A   3     -22.486 -13.841  27.061  0.00  0.00    +0.243 C 
ATOM      3  O   THR A   3     -21.974 -13.477  28.127  0.00  0.00    -0.273 OA
ATOM      4  N   ARG A   4     -21.960 -13.560  25.868  0.00  0.00    -0.297 N 
ATOM      5  H   ARG A   4     -22.420 -13.927  25.011  0.00  0.00    +0.150 HD
BRANCH   2   6
ATOM      6  CA  THR A   3     -23.776 -14.660  27.060  0.00  0.00    +0.176 C 
BRANCH   6   8
ATOM      7  C   GLY A   2     -25.013 -15.631  28.921  0.00  0.00    +0.243 C 
ATOM      8  N   THR A   3     -24.389 -14.591  28.381  0.00  0.00    -0.295 N 
ATOM      9  H   THR A   3     -24.336 -13.701  28.916  0.00  0.00    +0.150 HD
ATOM     10  O   GLY A   2     -25.091 -16.733  28.366  0.00  0.00    -0.273 OA
BRANCH   7  11
ATOM     11  CA  GLY A   2     -25.623 -15.399  30.287  0.00  0.00    +0.176 C 
BRANCH  11  13
ATOM     12  C   ALA A   1     -27.076 -17.252  30.828  0.00  0.00    +0.238 C 
ATOM     13  N   GLY A   2     -25.899 -16.646  30.962  0.00  0.00    -0.296 N 
ATOM     14  H   GLY A   2     -25.167 -17.077  31.562  0.00  0.00    +0.150 HD
ATOM     15  O   ALA A   1     -27.999 -16.810  30.135  0.00  0.00    -0.274 OA
BRANCH  12  16
ATOM     16  CA  ALA A   1     -27.215 -18.559  31.593  0.00  0.00    +0.145 C 
ATOM     17  CB  ALA A   1     -26.442 -19.652  30.878  0.00  0.00    +0.028 C 
BRANCH  16  18
ATOM     18  N   ALA A   1     -28.594 -18.977  31.782  0.00  0.00    -0.238 NA
ATOM     19  H   ALA A   1     -29.227 -19.029  30.958  0.00  0.00    +0.142 HD
ENDBRANCH  16  18
ENDBRANCH  12  16
ENDBRANCH  11  13
ENDBRANCH   7  11
ENDBRANCH   6   8
BRANCH   6  20
ATOM     20  CB  THR A   3     -24.733 -14.075  26.007  0.00  0.00    +0.137 C 
ATOM     21  CG2 THR A   3     -26.084 -14.765  26.076  0.00  0.00    +0.034 C 
BRANCH  20  22
ATOM     22  OG1 THR A   3     -24.925 -12.678  26.268  0.00  0.00    -0.382 OA
ATOM     23  HG1 THR A   3     -25.314 -12.563  27.171  0.00  0.00    +0.210 HD
ENDBRANCH  20  22
ENDBRANCH   6  20
ENDBRANCH   2   6
ENDBRANCH   1   4
BRANCH   1  24
ATOM     24  C   ARG A   4     -21.134 -11.322  25.342  0.00  0.00    +0.241 C 
ATOM     25  N   LYS A   5     -22.430 -11.038  25.345  0.00  0.00    -0.297 N 
ATOM     26  H   LYS A   5     -23.113 -11.774  25.614  0.00  0.00    +0.150 HD
ATOM     27  O   ARG A   4     -20.273 -10.496  25.044  0.00  0.00    -0.273 OA
BRANCH  25  28
ATOM     28  CA  LYS A   5     -22.913  -9.716  24.979  0.00  0.00    +0.149 C 
BRANCH  28  29
ATOM     29  C   LYS A   5     -22.789  -8.755  26.159  0.00  0.00    +0.241 C 
ATOM     30  N   THR A   6     -21.584  -8.671  26.719  0.00  0.00    -0.296 N 
ATOM     31  H   THR A   6     -20.805  -9.238  26.327  0.00  0.00    +0.150 HD
ATOM     32  O   LYS A   5     -23.763  -8.106  26.550  0.00  0.00    -0.273 OA
BRANCH  30  33
ATOM     33  CA  THR A   6     -21.323  -7.809  27.863  0.00  0.00    +0.164 C 
BRANCH  33  34
ATOM     34  C   THR A   6     -20.784  -6.441  27.457  0.00  0.00    +0.229 C 
ATOM     35  O   THR A   6     -20.368  -6.237  26.315  0.00  0.00    -0.286 OA
ENDBRANCH  33  34
BRANCH  33  36
ATOM     36  CB  THR A   6     -20.327  -8.491  28.847  0.00  0.00    +0.136 C 
ATOM     37  CG2 THR A   6     -20.910  -9.790  29.364  0.00  0.00    +0.034 C 
BRANCH  36  38
ATOM     38  OG1 THR A   6     -19.091  -8.789  28.176  0.00  0.00    -0.382 OA
ATOM     39  HG1 THR A   6     -18.690  -7.950  27.838  0.00  0.00    +0.210 HD
ENDBRANCH  36  38
ENDBRANCH  33  36
ENDBRANCH  30  33
ENDBRANCH  28  29
BRANCH  28  40
ATOM     40  CB  LYS A   5     -24.369  -9.811  24.529  0.00  0.00    +0.029 C 
BRANCH  40  41
ATOM     41  CG  LYS A   5     -24.608 -10.874  23.463  0.00  0.00    +0.000 C 
BRANCH  41  42
ATOM     42  CD  LYS A   5     -25.943 -10.690  22.755  0.00  0.00    -0.024 C 
BRANCH  42  43
ATOM     43  CE  LYS A   5     -26.157 -11.795  21.728  0.00  0.00    -0.086 C 
BRANCH  43  44
ATOM     44  NZ  LYS A   5     -27.521 -11.751  21.134  0.00  0.00    +0.380 N 
ATOM     45  HZ1 LYS A   5     -28.229 -11.866  21.887  0.00  0.00    -0.089 HD
ATOM     46  HZ2 LYS A   5     -27.662 -10.836  20.660  0.00  0.00    -0.089 HD
ATOM     47  HZ3 LYS A   5     -27.621 -12.520  20.441  0.00  0.00    -0.089 HD
ENDBRANCH  43  44
ENDBRANCH  42  43
ENDBRANCH  41  42
ENDBRANCH  40  41
ENDBRANCH  28  40
ENDBRANCH  25  28
ENDBRANCH   1  24
BRANCH   1  48
ATOM     48  CB  ARG A   4     -19.798 -13.311  24.681  0.00  0.00    +0.033 C 
BRANCH  48  49
ATOM     49  CG  ARG A   4     -18.891 -14.445  25.139  0.00  0.00    +0.045 C 
BRANCH  49  50
ATOM     50  CD  ARG A   4     -17.807 -14.664  24.103  0.00  0.00    +0.174 C 
BRANCH  50  51
ATOM     51  NE  ARG A   4     -18.403 -14.833  22.783  0.00  0.00    -0.265 N 
ATOM     52  HE  ARG A   4     -19.269 -15.405  22.714  0.00  0.00    +0.259 HD
ATOM     53  CZ  ARG A   4     -17.921 -14.310  21.664  0.00  0.00    +0.342 C 
ATOM     54  NH2 ARG A   4     -16.820 -13.576  21.687  0.00  0.00    -0.292 N 
ATOM     55 HH21 ARG A   4     -16.327 -13.406  22.587  0.00  0.00    +0.255 HD
ATOM     56 HH22 ARG A   4     -16.448 -13.169  20.805  0.00  0.00    +0.255 HD
ATOM     57  NH1 ARG A   4     -18.559 -14.512  20.521  0.00  0.00    -0.292 N 
ATOM     58 HH11 ARG A   4     -19.432 -15.077  20.505  0.00  0.00    +0.255 HD
ATOM     59 HH12 ARG A   4     -18.187 -14.105  19.639  0.00  0.00    +0.255 HD
ENDBRANCH  50  51
ENDBRANCH  49  50
ENDBRANCH  48  49
ENDBRANCH   1  48
TORSDOF 25
REMARK  Name = ../refined-set-2016/3c2r/3c2r_pocket.pdb
REMARK  174 active torsions:
REMARK  status: ('A' for Active; 'I' for Inactive)
REMARK    1  A    between atoms: _1  and  _3
REMARK    2  A    between atoms: _3  and  _4
REMARK    3  A    between atoms: _7  and  _9
REMARK    4  A    between atoms: _9  and  _10
REMARK    5  A    between atoms: _12  and  _14
REMARK    6  A    between atoms: _14  and  _15
REMARK    7  A    between atoms: _14  and  _17
REMARK    8  A    between atoms: _17  and  _18
REMARK    9  A    between atoms: _21  and  _23
REMARK   10  A    between atoms: _23  and  _24
REMARK   11  A    between atoms: _23  and  _26
REMARK   12  A    between atoms: _26  and  _27
REMARK   13  A    between atoms: _27  and  _28
REMARK   14  A    between atoms: _28  and  _29
REMARK   15  A    between atoms: _38  and  _40
REMARK   16  A    between atoms: _40  and  _41
REMARK   17  A    between atoms: _40  and  _43
REMARK   18  A    between atoms: _43  and  _44
REMARK   19  A    between atoms: _44  and  _45
REMARK   20  A    between atoms: _45  and  _46
REMARK   21  A    between atoms: _46  and  _47
REMARK   22  A    between atoms: _51  and  _53
REMARK   23  A    between atoms: _53  and  _54
REMARK   24  A    between atoms: _53  and  _56
REMARK   25  A    between atoms: _56  and  _57
REMARK   26  A    between atoms: _60  and  _62
REMARK   27  A    between atoms: _62  and  _63
REMARK   28  A    between atoms: _62  and  _65
REMARK   29  A    between atoms: _65  and  _66
REMARK   30  A    between atoms: _66  and  _67
REMARK   31  A    between atoms: _67  and  _68
REMARK   32  A    between atoms: _77  and  _79
REMARK   33  A    between atoms: _79  and  _80
REMARK   34  A    between atoms: _79  and  _82
REMARK   35  A    between atoms: _82  and  _83
REMARK   36  A    between atoms: _83  and  _84
REMARK   37  A    between atoms: _84  and  _85
REMARK   38  A    between atoms: _85  and  _86
REMARK   39  A    between atoms: _90  and  _92
REMARK   40  A    between atoms: _92  and  _93
REMARK   41  A    between atoms: _92  and  _95
REMARK   42  A    between atoms: _95  and  _96
REMARK   43  A    between atoms: _99  and  _101
REMARK   44  A    between atoms: _101  and  _102
REMARK   45  A    between atoms: _101  and  _104
REMARK   46  A    between atoms: _104  and  _105
REMARK   47  A    between atoms: _110  and  _112
REMARK   48  A    between atoms: _112  and  _113
REMARK   49  A    between atoms: _112  and  _115
REMARK   50  A    between atoms: _115  and  _116
REMARK   51  A    between atoms: _116  and  _117
REMARK   52  A    between atoms: _117  and  _118
REMARK   53  A    between atoms: _127  and  _129
REMARK   54  A    between atoms: _129  and  _130
REMARK   55  A    between atoms: _129  and  _132
REMARK   56  A    between atoms: _132  and  _133
REMARK   57  A    between atoms: _138  and  _139
REMARK   58  A    between atoms: _141  and  _143
REMARK   59  A    between atoms: _143  and  _144
REMARK   60  A    between atoms: _143  and  _146
REMARK   61  A    between atoms: _146  and  _147
REMARK   62  A    between atoms: _150  and  _152
REMARK   63  A    between atoms: _152  and  _153
REMARK   64  A    between atoms: _152  and  _155
REMARK   65  A    between atoms: _155  and  _156
REMARK   66  A    between atoms: _159  and  _161
REMARK   67  A    between atoms: _161  and  _162
REMARK   68  A    between atoms: _161  and  _164
REMARK   69  A    between atoms: _164  and  _165
REMARK   70  A    between atoms: _167  and  _169
REMARK   71  A    between atoms: _169  and  _170
REMARK   72  A    between atoms: _169  and  _172
REMARK   73  A    between atoms: _172  and  _173
REMARK   74  A    between atoms: _173  and  _174
REMARK   75  A    between atoms: _176  and  _178
REMARK   76  A    between atoms: _178  and  _179
REMARK   77  A    between atoms: _178  and  _181
REMARK   78  A    between atoms: _181  and  _182
REMARK   79  A    between atoms: _182  and  _183
REMARK   80  A    between atoms: _185  and  _187
REMARK   81  A    between atoms: _187  and  _188
REMARK   82  A    between atoms: _187  and  _190
REMARK   83  A    between atoms: _190  and  _191
REMARK   84  A    between atoms: _191  and  _192
REMARK   85  A    between atoms: _192  and  _193
REMARK   86  A    between atoms: _193  and  _194
REMARK   87  A    between atoms: _198  and  _200
REMARK   88  A    between atoms: _200  and  _201
REMARK   89  A    between atoms: _200  and  _203
REMARK   90  A    between atoms: _203  and  _204
REMARK   91  A    between atoms: _204  and  _205
REMARK   92  A    between atoms: _208  and  _210
REMARK   93  A    between atoms: _210  and  _211
REMARK   94  A    between atoms: _210  and  _213
REMARK   95  A    between atoms: _213  and  _214
REMARK   96  A    between atoms: _214  and  _215
REMARK   97  A    between atoms: _218  and  _220
REMARK   98  A    between atoms: _220  and  _221
REMARK   99  A    between atoms: _220  and  _223
REMARK  100  A    between atoms: _223  and  _224
REMARK  101  A    between atoms: _224  and  _225
REMARK  102  A    between atoms: _227  and  _229
REMARK  103  A    between atoms: _229  and  _230
REMARK  104  A    between atoms: _229  and  _232
REMARK  105  A    between atoms: _232  and  _233
REMARK  106  A    between atoms: _233  and  _234
REMARK  107  A    between atoms: _237  and  _239
REMARK  108  A    between atoms: _239  and  _240
REMARK  109  A    between atoms: _239  and  _242
REMARK  110  A    between atoms: _244  and  _246
REMARK  111  A    between atoms: _246  and  _247
REMARK  112  A    between atoms: _246  and  _249
REMARK  113  A    between atoms: _249  and  _250
REMARK  114  A    between atoms: _252  and  _254
REMARK  115  A    between atoms: _254  and  _255
REMARK  116  A    between atoms: _257  and  _259
REMARK  117  A    between atoms: _259  and  _260
REMARK  118  A    between atoms: _259  and  _262
REMARK  119  A    between atoms: _262  and  _263
REMARK  120  A    between atoms: _266  and  _268
REMARK  121  A    between atoms: _268  and  _269
REMARK  122  A    between atoms: _268  and  _271
REMARK  123  A    between atoms: _271  and  _272
REMARK  124  A    between atoms: _277  and  _278
REMARK  125  A    between atoms: _280  and  _282
REMARK  126  A    between atoms: _282  and  _283
REMARK  127  A    between atoms: _282  and  _285
REMARK  128  A    between atoms: _285  and  _286
REMARK  129  A    between atoms: _288  and  _290
REMARK  130  A    between atoms: _290  and  _291
REMARK  131  A    between atoms: _290  and  _293
REMARK  132  A    between atoms: _293  and  _294
REMARK  133  A    between atoms: _297  and  _299
REMARK  134  A    between atoms: _299  and  _300
REMARK  135  A    between atoms: _299  and  _302
REMARK  136  A    between atoms: _302  and  _303
REMARK  137  A    between atoms: _305  and  _307
REMARK  138  A    between atoms: _307  and  _308
REMARK  139  A    between atoms: _307  and  _310
REMARK  140  A    between atoms: _310  and  _311
REMARK  141  A    between atoms: _316  and  _318
REMARK  142  A    between atoms: _318  and  _319
REMARK  143  A    between atoms: _318  and  _321
REMARK  144  A    between atoms: _321  and  _322
REMARK  145  A    between atoms: _325  and  _327
REMARK  146  A    between atoms: _327  and  _328
REMARK  147  A    between atoms: _327  and  _330
REMARK  148  A    between atoms: _330  and  _331
REMARK  149  A    between atoms: _331  and  _332
REMARK  150  A    between atoms: _335  and  _337
REMARK  151  A    between atoms: _337  and  _338
REMARK  152  A    between atoms: _337  and  _340
REMARK  153  A    between atoms: _340  and  _341
REMARK  154  A    between atoms: _341  and  _342
REMARK  155  A    between atoms: _342  and  _343
REMARK  156  A    between atoms: _352  and  _354
REMARK  157  A    between atoms: _354  and  _355
REMARK  158  A    between atoms: _354  and  _357
REMARK  159  A    between atoms: _357  and  _358
REMARK  160  A    between atoms: _361  and  _363
REMARK  161  A    between atoms: _363  and  _364
REMARK  162  A    between atoms: _363  and  _366
REMARK  163  A    between atoms: _366  and  _367
REMARK  164  A    between atoms: _372  and  _374
REMARK  165  A    between atoms: _374  and  _375
REMARK  166  A    between atoms: _374  and  _377
REMARK  167  A    between atoms: _377  and  _378
REMARK  168  A    between atoms: _378  and  _379
REMARK  169  A    between atoms: _379  and  _380
REMARK  170  A    between atoms: _380  and  _381
REMARK  171  A    between atoms: _385  and  _387
REMARK  172  A    between atoms: _387  and  _388
REMARK  173  A    between atoms: _387  and  _390
REMARK  174  A    between atoms: _390  and  _391
REMARK                            x       y       z     vdW  Elec       q    Type
REMARK                         _______ _______ _______ _____ _____    ______ ____
ROOT
ATOM      1  NE  ARG A   1     -16.813 -10.870  28.215  0.00  0.00    -0.265 N 
ATOM      2  HE  ARG A   1     -17.696 -10.363  28.428  0.00  0.00    +0.259 HD
ATOM      3  CZ  ARG A   1     -16.550 -11.144  26.946  0.00  0.00    +0.342 C 
ATOM      4  NH2 ARG A   1     -15.438 -11.781  26.625  0.00  0.00    -0.292 N 
ATOM      5 HH21 ARG A   1     -14.769 -12.067  27.369  0.00  0.00    +0.255 HD
ATOM      6 HH22 ARG A   1     -15.231 -11.996  25.629  0.00  0.00    +0.255 HD
ATOM      7  NH1 ARG A   1     -17.405 -10.783  26.002  0.00  0.00    -0.292 N 
ATOM      8 HH11 ARG A   1     -18.282 -10.285  26.257  0.00  0.00    +0.255 HD
ATOM      9 HH12 ARG A   1     -17.200 -10.997  25.005  0.00  0.00    +0.255 HD
ENDROOT
BRANCH   1  10
ATOM     10  CD  ARG A   1     -15.952 -11.229  29.330  0.00  0.00    +0.174 C 
BRANCH  10  11
ATOM     11  CG  ARG A   1     -16.416 -10.523  30.578  0.00  0.00    +0.045 C 
BRANCH  11  12
ATOM     12  CB  ARG A   1     -16.183  -9.023  30.472  0.00  0.00    +0.029 C 
BRANCH  12  13
ATOM     13  CA  ARG A   1     -16.977  -8.207  31.484  0.00  0.00    +0.133 C 
BRANCH  13  14
ATOM     14  N   ARG A   1     -16.566  -6.814  31.440  0.00  0.00    -0.239 NA
ATOM     15  H   ARG A   1     -15.804  -6.527  30.793  0.00  0.00    +0.142 HD
ENDBRANCH  13  14
BRANCH  13  16
ATOM     16  C   ARG A   1     -16.858  -8.846  32.859  0.00  0.00    +0.224 C 
ATOM     17  O   ARG A   1     -17.788  -9.516  33.315  0.00  0.00    -0.287 OA
ENDBRANCH  13  16
ENDBRANCH  12  13
ENDBRANCH  11  12
ENDBRANCH  10  11
ENDBRANCH   1  10
TORSDOF 6
REMARK  Name = ../refined-set-2016/3c2r/3c2r_pocket.pdb
REMARK  174 active torsions:
REMARK  status: ('A' for Active; 'I' for Inactive)
REMARK    1  A    between atoms: _1  and  _3
REMARK    2  A    between atoms: _3  and  _4
REMARK    3  A    between atoms: _7  and  _9
REMARK    4  A    between atoms: _9  and  _10
REMARK    5  A    between atoms: _12  and  _14
REMARK    6  A    between atoms: _14  and  _15
REMARK    7  A    between atoms: _14  and  _17
REMARK    8  A    between atoms: _17  and  _18
REMARK    9  A    between atoms: _21  and  _23
REMARK   10  A    between atoms: _23  and  _24
REMARK   11  A    between atoms: _23  and  _26
REMARK   12  A    between atoms: _26  and  _27
REMARK   13  A    between atoms: _27  and  _28
REMARK   14  A    between atoms: _28  and  _29
REMARK   15  A    between atoms: _38  and  _40
REMARK   16  A    between atoms: _40  and  _41
REMARK   17  A    between atoms: _40  and  _43
REMARK   18  A    between atoms: _43  and  _44
REMARK   19  A    between atoms: _44  and  _45
REMARK   20  A    between atoms: _45  and  _46
REMARK   21  A    between atoms: _46  and  _47
REMARK   22  A    between atoms: _51  and  _53
REMARK   23  A    between atoms: _53  and  _54
REMARK   24  A    between atoms: _53  and  _56
REMARK   25  A    between atoms: _56  and  _57
REMARK   26  A    between atoms: _60  and  _62
REMARK   27  A    between atoms: _62  and  _63
REMARK   28  A    between atoms: _62  and  _65
REMARK   29  A    between atoms: _65  and  _66
REMARK   30  A    between atoms: _66  and  _67
REMARK   31  A    between atoms: _67  and  _68
REMARK   32  A    between atoms: _77  and  _79
REMARK   33  A    between atoms: _79  and  _80
REMARK   34  A    between atoms: _79  and  _82
REMARK   35  A    between atoms: _82  and  _83
REMARK   36  A    between atoms: _83  and  _84
REMARK   37  A    between atoms: _84  and  _85
REMARK   38  A    between atoms: _85  and  _86
REMARK   39  A    between atoms: _90  and  _92
REMARK   40  A    between atoms: _92  and  _93
REMARK   41  A    between atoms: _92  and  _95
REMARK   42  A    between atoms: _95  and  _96
REMARK   43  A    between atoms: _99  and  _101
REMARK   44  A    between atoms: _101  and  _102
REMARK   45  A    between atoms: _101  and  _104
REMARK   46  A    between atoms: _104  and  _105
REMARK   47  A    between atoms: _110  and  _112
REMARK   48  A    between atoms: _112  and  _113
REMARK   49  A    between atoms: _112  and  _115
REMARK   50  A    between atoms: _115  and  _116
REMARK   51  A    between atoms: _116  and  _117
REMARK   52  A    between atoms: _117  and  _118
REMARK   53  A    between atoms: _127  and  _129
REMARK   54  A    between atoms: _129  and  _130
REMARK   55  A    between atoms: _129  and  _132
REMARK   56  A    between atoms: _132  and  _133
REMARK   57  A    between atoms: _138  and  _139
REMARK   58  A    between atoms: _141  and  _143
REMARK   59  A    between atoms: _143  and  _144
REMARK   60  A    between atoms: _143  and  _146
REMARK   61  A    between atoms: _146  and  _147
REMARK   62  A    between atoms: _150  and  _152
REMARK   63  A    between atoms: _152  and  _153
REMARK   64  A    between atoms: _152  and  _155
REMARK   65  A    between atoms: _155  and  _156
REMARK   66  A    between atoms: _159  and  _161
REMARK   67  A    between atoms: _161  and  _162
REMARK   68  A    between atoms: _161  and  _164
REMARK   69  A    between atoms: _164  and  _165
REMARK   70  A    between atoms: _167  and  _169
REMARK   71  A    between atoms: _169  and  _170
REMARK   72  A    between atoms: _169  and  _172
REMARK   73  A    between atoms: _172  and  _173
REMARK   74  A    between atoms: _173  and  _174
REMARK   75  A    between atoms: _176  and  _178
REMARK   76  A    between atoms: _178  and  _179
REMARK   77  A    between atoms: _178  and  _181
REMARK   78  A    between atoms: _181  and  _182
REMARK   79  A    between atoms: _182  and  _183
REMARK   80  A    between atoms: _185  and  _187
REMARK   81  A    between atoms: _187  and  _188
REMARK   82  A    between atoms: _187  and  _190
REMARK   83  A    between atoms: _190  and  _191
REMARK   84  A    between atoms: _191  and  _192
REMARK   85  A    between atoms: _192  and  _193
REMARK   86  A    between atoms: _193  and  _194
REMARK   87  A    between atoms: _198  and  _200
REMARK   88  A    between atoms: _200  and  _201
REMARK   89  A    between atoms: _200  and  _203
REMARK   90  A    between atoms: _203  and  _204
REMARK   91  A    between atoms: _204  and  _205
REMARK   92  A    between atoms: _208  and  _210
REMARK   93  A    between atoms: _210  and  _211
REMARK   94  A    between atoms: _210  and  _213
REMARK   95  A    between atoms: _213  and  _214
REMARK   96  A    between atoms: _214  and  _215
REMARK   97  A    between atoms: _218  and  _220
REMARK   98  A    between atoms: _220  and  _221
REMARK   99  A    between atoms: _220  and  _223
REMARK  100  A    between atoms: _223  and  _224
REMARK  101  A    between atoms: _224  and  _225
REMARK  102  A    between atoms: _227  and  _229
REMARK  103  A    between atoms: _229  and  _230
REMARK  104  A    between atoms: _229  and  _232
REMARK  105  A    between atoms: _232  and  _233
REMARK  106  A    between atoms: _233  and  _234
REMARK  107  A    between atoms: _237  and  _239
REMARK  108  A    between atoms: _239  and  _240
REMARK  109  A    between atoms: _239  and  _242
REMARK  110  A    between atoms: _244  and  _246
REMARK  111  A    between atoms: _246  and  _247
REMARK  112  A    between atoms: _246  and  _249
REMARK  113  A    between atoms: _249  and  _250
REMARK  114  A    between atoms: _252  and  _254
REMARK  115  A    between atoms: _254  and  _255
REMARK  116  A    between atoms: _257  and  _259
REMARK  117  A    between atoms: _259  and  _260
REMARK  118  A    between atoms: _259  and  _262
REMARK  119  A    between atoms: _262  and  _263
REMARK  120  A    between atoms: _266  and  _268
REMARK  121  A    between atoms: _268  and  _269
REMARK  122  A    between atoms: _268  and  _271
REMARK  123  A    between atoms: _271  and  _272
REMARK  124  A    between atoms: _277  and  _278
REMARK  125  A    between atoms: _280  and  _282
REMARK  126  A    between atoms: _282  and  _283
REMARK  127  A    between atoms: _282  and  _285
REMARK  128  A    between atoms: _285  and  _286
REMARK  129  A    between atoms: _288  and  _290
REMARK  130  A    between atoms: _290  and  _291
REMARK  131  A    between atoms: _290  and  _293
REMARK  132  A    between atoms: _293  and  _294
REMARK  133  A    between atoms: _297  and  _299
REMARK  134  A    between atoms: _299  and  _300
REMARK  135  A    between atoms: _299  and  _302
REMARK  136  A    between atoms: _302  and  _303
REMARK  137  A    between atoms: _305  and  _307
REMARK  138  A    between atoms: _307  and  _308
REMARK  139  A    between atoms: _307  and  _310
REMARK  140  A    between atoms: _310  and  _311
REMARK  141  A    between atoms: _316  and  _318
REMARK  142  A    between atoms: _318  and  _319
REMARK  143  A    between atoms: _318  and  _321
REMARK  144  A    between atoms: _321  and  _322
REMARK  145  A    between atoms: _325  and  _327
REMARK  146  A    between atoms: _327  and  _328
REMARK  147  A    between atoms: _327  and  _330
REMARK  148  A    between atoms: _330  and  _331
REMARK  149  A    between atoms: _331  and  _332
REMARK  150  A    between atoms: _335  and  _337
REMARK  151  A    between atoms: _337  and  _338
REMARK  152  A    between atoms: _337  and  _340
REMARK  153  A    between atoms: _340  and  _341
REMARK  154  A    between atoms: _341  and  _342
REMARK  155  A    between atoms: _342  and  _343
REMARK  156  A    between atoms: _352  and  _354
REMARK  157  A    between atoms: _354  and  _355
REMARK  158  A    between atoms: _354  and  _357
REMARK  159  A    between atoms: _357  and  _358
REMARK  160  A    between atoms: _361  and  _363
REMARK  161  A    between atoms: _363  and  _364
REMARK  162  A    between atoms: _363  and  _366
REMARK  163  A    between atoms: _366  and  _367
REMARK  164  A    between atoms: _372  and  _374
REMARK  165  A    between atoms: _374  and  _375
REMARK  166  A    between atoms: _374  and  _377
REMARK  167  A    between atoms: _377  and  _378
REMARK  168  A    between atoms: _378  and  _379
REMARK  169  A    between atoms: _379  and  _380
REMARK  170  A    between atoms: _380  and  _381
REMARK  171  A    between atoms: _385  and  _387
REMARK  172  A    between atoms: _387  and  _388
REMARK  173  A    between atoms: _387  and  _390
REMARK  174  A    between atoms: _390  and  _391
REMARK                            x       y       z     vdW  Elec       q    Type
REMARK                         _______ _______ _______ _____ _____    ______ ____
ROOT
ATOM      1  CG  LYS A   1     -19.018 -12.455  32.752  0.00  0.00    -0.000 C 
ENDROOT
BRANCH   1   2
ATOM      2  CB  LYS A   1     -19.119 -12.518  34.268  0.00  0.00    +0.025 C 
BRANCH   2   3
ATOM      3  CA  LYS A   1     -20.333 -11.796  34.854  0.00  0.00    +0.133 C 
BRANCH   3   4
ATOM      4  N   LYS A   1     -20.214 -10.350  34.665  0.00  0.00    -0.239 NA
ATOM      5  H   LYS A   1     -19.329  -9.949  34.294  0.00  0.00    +0.142 HD
ENDBRANCH   3   4
BRANCH   3   6
ATOM      6  C   LYS A   1     -20.437 -12.076  36.356  0.00  0.00    +0.224 C 
ATOM      7  O   LYS A   1     -21.150 -12.980  36.787  0.00  0.00    -0.287 OA
ENDBRANCH   3   6
ENDBRANCH   2   3
ENDBRANCH   1   2
BRANCH   1   8
ATOM      8  CD  LYS A   1     -19.801 -13.575  32.089  0.00  0.00    -0.024 C 
BRANCH   8   9
ATOM      9  CE  LYS A   1     -19.702 -13.479  30.585  0.00  0.00    -0.086 C 
BRANCH   9  10
ATOM     10  NZ  LYS A   1     -20.338 -14.629  29.921  0.00  0.00    +0.380 N 
ATOM     11  HZ1 LYS A   1     -19.869 -15.506  30.225  0.00  0.00    -0.089 HD
ATOM     12  HZ2 LYS A   1     -21.344 -14.665  30.181  0.00  0.00    -0.089 HD
ATOM     13  HZ3 LYS A   1     -20.249 -14.525  28.890  0.00  0.00    -0.089 HD
ENDBRANCH   9  10
ENDBRANCH   8   9
ENDBRANCH   1   8
TORSDOF 7
REMARK  Name = ../refined-set-2016/3c2r/3c2r_pocket.pdb
REMARK  174 active torsions:
REMARK  status: ('A' for Active; 'I' for Inactive)
REMARK    1  A    between atoms: _1  and  _3
REMARK    2  A    between atoms: _3  and  _4
REMARK    3  A    between atoms: _7  and  _9
REMARK    4  A    between atoms: _9  and  _10
REMARK    5  A    between atoms: _12  and  _14
REMARK    6  A    between atoms: _14  and  _15
REMARK    7  A    between atoms: _14  and  _17
REMARK    8  A    between atoms: _17  and  _18
REMARK    9  A    between atoms: _21  and  _23
REMARK   10  A    between atoms: _23  and  _24
REMARK   11  A    between atoms: _23  and  _26
REMARK   12  A    between atoms: _26  and  _27
REMARK   13  A    between atoms: _27  and  _28
REMARK   14  A    between atoms: _28  and  _29
REMARK   15  A    between atoms: _38  and  _40
REMARK   16  A    between atoms: _40  and  _41
REMARK   17  A    between atoms: _40  and  _43
REMARK   18  A    between atoms: _43  and  _44
REMARK   19  A    between atoms: _44  and  _45
REMARK   20  A    between atoms: _45  and  _46
REMARK   21  A    between atoms: _46  and  _47
REMARK   22  A    between atoms: _51  and  _53
REMARK   23  A    between atoms: _53  and  _54
REMARK   24  A    between atoms: _53  and  _56
REMARK   25  A    between atoms: _56  and  _57
REMARK   26  A    between atoms: _60  and  _62
REMARK   27  A    between atoms: _62  and  _63
REMARK   28  A    between atoms: _62  and  _65
REMARK   29  A    between atoms: _65  and  _66
REMARK   30  A    between atoms: _66  and  _67
REMARK   31  A    between atoms: _67  and  _68
REMARK   32  A    between atoms: _77  and  _79
REMARK   33  A    between atoms: _79  and  _80
REMARK   34  A    between atoms: _79  and  _82
REMARK   35  A    between atoms: _82  and  _83
REMARK   36  A    between atoms: _83  and  _84
REMARK   37  A    between atoms: _84  and  _85
REMARK   38  A    between atoms: _85  and  _86
REMARK   39  A    between atoms: _90  and  _92
REMARK   40  A    between atoms: _92  and  _93
REMARK   41  A    between atoms: _92  and  _95
REMARK   42  A    between atoms: _95  and  _96
REMARK   43  A    between atoms: _99  and  _101
REMARK   44  A    between atoms: _101  and  _102
REMARK   45  A    between atoms: _101  and  _104
REMARK   46  A    between atoms: _104  and  _105
REMARK   47  A    between atoms: _110  and  _112
REMARK   48  A    between atoms: _112  and  _113
REMARK   49  A    between atoms: _112  and  _115
REMARK   50  A    between atoms: _115  and  _116
REMARK   51  A    between atoms: _116  and  _117
REMARK   52  A    between atoms: _117  and  _118
REMARK   53  A    between atoms: _127  and  _129
REMARK   54  A    between atoms: _129  and  _130
REMARK   55  A    between atoms: _129  and  _132
REMARK   56  A    between atoms: _132  and  _133
REMARK   57  A    between atoms: _138  and  _139
REMARK   58  A    between atoms: _141  and  _143
REMARK   59  A    between atoms: _143  and  _144
REMARK   60  A    between atoms: _143  and  _146
REMARK   61  A    between atoms: _146  and  _147
REMARK   62  A    between atoms: _150  and  _152
REMARK   63  A    between atoms: _152  and  _153
REMARK   64  A    between atoms: _152  and  _155
REMARK   65  A    between atoms: _155  and  _156
REMARK   66  A    between atoms: _159  and  _161
REMARK   67  A    between atoms: _161  and  _162
REMARK   68  A    between atoms: _161  and  _164
REMARK   69  A    between atoms: _164  and  _165
REMARK   70  A    between atoms: _167  and  _169
REMARK   71  A    between atoms: _169  and  _170
REMARK   72  A    between atoms: _169  and  _172
REMARK   73  A    between atoms: _172  and  _173
REMARK   74  A    between atoms: _173  and  _174
REMARK   75  A    between atoms: _176  and  _178
REMARK   76  A    between atoms: _178  and  _179
REMARK   77  A    between atoms: _178  and  _181
REMARK   78  A    between atoms: _181  and  _182
REMARK   79  A    between atoms: _182  and  _183
REMARK   80  A    between atoms: _185  and  _187
REMARK   81  A    between atoms: _187  and  _188
REMARK   82  A    between atoms: _187  and  _190
REMARK   83  A    between atoms: _190  and  _191
REMARK   84  A    between atoms: _191  and  _192
REMARK   85  A    between atoms: _192  and  _193
REMARK   86  A    between atoms: _193  and  _194
REMARK   87  A    between atoms: _198  and  _200
REMARK   88  A    between atoms: _200  and  _201
REMARK   89  A    between atoms: _200  and  _203
REMARK   90  A    between atoms: _203  and  _204
REMARK   91  A    between atoms: _204  and  _205
REMARK   92  A    between atoms: _208  and  _210
REMARK   93  A    between atoms: _210  and  _211
REMARK   94  A    between atoms: _210  and  _213
REMARK   95  A    between atoms: _213  and  _214
REMARK   96  A    between atoms: _214  and  _215
REMARK   97  A    between atoms: _218  and  _220
REMARK   98  A    between atoms: _220  and  _221
REMARK   99  A    between atoms: _220  and  _223
REMARK  100  A    between atoms: _223  and  _224
REMARK  101  A    between atoms: _224  and  _225
REMARK  102  A    between atoms: _227  and  _229
REMARK  103  A    between atoms: _229  and  _230
REMARK  104  A    between atoms: _229  and  _232
REMARK  105  A    between atoms: _232  and  _233
REMARK  106  A    between atoms: _233  and  _234
REMARK  107  A    between atoms: _237  and  _239
REMARK  108  A    between atoms: _239  and  _240
REMARK  109  A    between atoms: _239  and  _242
REMARK  110  A    between atoms: _244  and  _246
REMARK  111  A    between atoms: _246  and  _247
REMARK  112  A    between atoms: _246  and  _249
REMARK  113  A    between atoms: _249  and  _250
REMARK  114  A    between atoms: _252  and  _254
REMARK  115  A    between atoms: _254  and  _255
REMARK  116  A    between atoms: _257  and  _259
REMARK  117  A    between atoms: _259  and  _260
REMARK  118  A    between atoms: _259  and  _262
REMARK  119  A    between atoms: _262  and  _263
REMARK  120  A    between atoms: _266  and  _268
REMARK  121  A    between atoms: _268  and  _269
REMARK  122  A    between atoms: _268  and  _271
REMARK  123  A    between atoms: _271  and  _272
REMARK  124  A    between atoms: _277  and  _278
REMARK  125  A    between atoms: _280  and  _282
REMARK  126  A    between atoms: _282  and  _283
REMARK  127  A    between atoms: _282  and  _285
REMARK  128  A    between atoms: _285  and  _286
REMARK  129  A    between atoms: _288  and  _290
REMARK  130  A    between atoms: _290  and  _291
REMARK  131  A    between atoms: _290  and  _293
REMARK  132  A    between atoms: _293  and  _294
REMARK  133  A    between atoms: _297  and  _299
REMARK  134  A    between atoms: _299  and  _300
REMARK  135  A    between atoms: _299  and  _302
REMARK  136  A    between atoms: _302  and  _303
REMARK  137  A    between atoms: _305  and  _307
REMARK  138  A    between atoms: _307  and  _308
REMARK  139  A    between atoms: _307  and  _310
REMARK  140  A    between atoms: _310  and  _311
REMARK  141  A    between atoms: _316  and  _318
REMARK  142  A    between atoms: _318  and  _319
REMARK  143  A    between atoms: _318  and  _321
REMARK  144  A    between atoms: _321  and  _322
REMARK  145  A    between atoms: _325  and  _327
REMARK  146  A    between atoms: _327  and  _328
REMARK  147  A    between atoms: _327  and  _330
REMARK  148  A    between atoms: _330  and  _331
REMARK  149  A    between atoms: _331  and  _332
REMARK  150  A    between atoms: _335  and  _337
REMARK  151  A    between atoms: _337  and  _338
REMARK  152  A    between atoms: _337  and  _340
REMARK  153  A    between atoms: _340  and  _341
REMARK  154  A    between atoms: _341  and  _342
REMARK  155  A    between atoms: _342  and  _343
REMARK  156  A    between atoms: _352  and  _354
REMARK  157  A    between atoms: _354  and  _355
REMARK  158  A    between atoms: _354  and  _357
REMARK  159  A    between atoms: _357  and  _358
REMARK  160  A    between atoms: _361  and  _363
REMARK  161  A    between atoms: _363  and  _364
REMARK  162  A    between atoms: _363  and  _366
REMARK  163  A    between atoms: _366  and  _367
REMARK  164  A    between atoms: _372  and  _374
REMARK  165  A    between atoms: _374  and  _375
REMARK  166  A    between atoms: _374  and  _377
REMARK  167  A    between atoms: _377  and  _378
REMARK  168  A    between atoms: _378  and  _379
REMARK  169  A    between atoms: _379  and  _380
REMARK  170  A    between atoms: _380  and  _381
REMARK  171  A    between atoms: _385  and  _387
REMARK  172  A    between atoms: _387  and  _388
REMARK  173  A    between atoms: _387  and  _390
REMARK  174  A    between atoms: _390  and  _391
REMARK                            x       y       z     vdW  Elec       q    Type
REMARK                         _______ _______ _______ _____ _____    ______ ____
ROOT
ATOM      1  CA  ARG A   3     -18.382 -19.418  29.034  0.00  0.00    +0.149 C 
ENDROOT
BRANCH   1   4
ATOM      2  C   HIS A   2     -20.322 -19.155  30.497  0.00  0.00    +0.241 C 
ATOM      3  O   HIS A   2     -19.635 -18.641  31.368  0.00  0.00    -0.273 OA
ATOM      4  N   ARG A   3     -19.810 -19.571  29.341  0.00  0.00    -0.297 N 
ATOM      5  H   ARG A   3     -20.436 -20.015  28.639  0.00  0.00    +0.150 HD
BRANCH   2   6
ATOM      6  CA  HIS A   2     -21.825 -19.341  30.730  0.00  0.00    +0.155 C 
BRANCH   6   8
ATOM      7  C   THR A   1     -22.181 -17.410  32.229  0.00  0.00    +0.241 C 
ATOM      8  N   HIS A   2     -22.117 -18.726  32.028  0.00  0.00    -0.297 N 
ATOM      9  H   HIS A   2     -22.284 -19.354  32.840  0.00  0.00    +0.150 HD
ATOM     10  O   THR A   1     -22.044 -16.577  31.342  0.00  0.00    -0.274 OA
BRANCH   7  11
ATOM     11  CA  THR A   1     -22.444 -16.964  33.656  0.00  0.00    +0.172 C 
BRANCH  11  12
ATOM     12  N   THR A   1     -23.084 -17.999  34.448  0.00  0.00    -0.236 NA
ATOM     13  H   THR A   1     -22.512 -18.582  35.092  0.00  0.00    +0.142 HD
ENDBRANCH  11  12
BRANCH  11  14
ATOM     14  CB  THR A   1     -21.099 -16.553  34.273  0.00  0.00    +0.135 C 
ATOM     15  CG2 THR A   1     -21.286 -16.117  35.712  0.00  0.00    +0.034 C 
BRANCH  14  16
ATOM     16  OG1 THR A   1     -20.196 -17.667  34.227  0.00  0.00    -0.383 OA
ATOM     17  HG1 THR A   1     -20.059 -17.941  33.286  0.00  0.00    +0.210 HD
ENDBRANCH  14  16
ENDBRANCH  11  14
ENDBRANCH   7  11
ENDBRANCH   6   8
BRANCH   6  18
ATOM     18  CB  HIS A   2     -22.616 -18.667  29.608  0.00  0.00    +0.076 C 
BRANCH  18  19
ATOM     19  CG  HIS A   2     -22.765 -19.517  28.387  0.00  0.00    +0.082 A 
ATOM     20  ND1 HIS A   2     -23.946 -20.147  28.060  0.00  0.00    -0.227 NA
ATOM     21  CE1 HIS A   2     -23.775 -20.859  26.960  0.00  0.00    +0.199 A 
ATOM     22  NE2 HIS A   2     -22.525 -20.713  26.562  0.00  0.00    -0.221 NA
ATOM     23  CD2 HIS A   2     -21.872 -19.877  27.436  0.00  0.00    +0.115 A 
ENDBRANCH  18  19
ENDBRANCH   6  18
ENDBRANCH   2   6
ENDBRANCH   1   4
BRANCH   1  24
ATOM     24  C   ARG A   3     -18.010 -17.940  29.270  0.00  0.00    +0.241 C 
ATOM     25  N   TYR A   4     -16.800 -17.688  29.759  0.00  0.00    -0.297 N 
ATOM     26  H   TYR A   4     -16.149 -18.474  29.958  0.00  0.00    +0.150 HD
ATOM     27  O   ARG A   3     -18.809 -17.042  29.010  0.00  0.00    -0.273 OA
BRANCH  25  28
ATOM     28  CA  TYR A   4     -16.380 -16.317  30.018  0.00  0.00    +0.153 C 
BRANCH  28  29
ATOM     29  C   TYR A   4     -15.953 -15.563  28.757  0.00  0.00    +0.241 C 
ATOM     30  O   TYR A   4     -16.359 -14.414  28.551  0.00  0.00    -0.273 OA
ATOM     31  N   ASP A   5     -15.171 -16.216  27.902  0.00  0.00    -0.297 N 
ATOM     32  H   ASP A   5     -14.905 -17.202  28.100  0.00  0.00    +0.150 HD
BRANCH  31  33
ATOM     33  CA  ASP A   5     -14.681 -15.568  26.688  0.00  0.00    +0.160 C 
BRANCH  33  34
ATOM     34  C   ASP A   5     -14.468 -16.549  25.545  0.00  0.00    +0.241 C 
ATOM     35  O   ASP A   5     -14.915 -17.696  25.606  0.00  0.00    -0.273 OA
ATOM     36  N   LEU A   6     -13.773 -16.091  24.505  0.00  0.00    -0.298 N 
ATOM     37  H   LEU A   6     -13.430 -15.109  24.517  0.00  0.00    +0.150 HD
BRANCH  36  38
ATOM     38  CA  LEU A   6     -13.480 -16.934  23.347  0.00  0.00    +0.137 C 
BRANCH  38  39
ATOM     39  C   LEU A   6     -12.337 -17.904  23.631  0.00  0.00    +0.227 C 
ATOM     40  O   LEU A   6     -11.759 -18.469  22.709  0.00  0.00    -0.286 OA
ENDBRANCH  38  39
BRANCH  38  41
ATOM     41  CB  LEU A   6     -13.110 -16.089  22.119  0.00  0.00    +0.028 C 
BRANCH  41  42
ATOM     42  CG  LEU A   6     -14.197 -15.322  21.370  0.00  0.00    +0.002 C 
ATOM     43  CD2 LEU A   6     -15.270 -16.291  20.889  0.00  0.00    +0.000 C 
ATOM     44  CD1 LEU A   6     -13.568 -14.587  20.180  0.00  0.00    +0.000 C 
ENDBRANCH  41  42
ENDBRANCH  38  41
ENDBRANCH  36  38
ENDBRANCH  33  34
BRANCH  33  45
ATOM     45  CB  ASP A   5     -13.357 -14.876  26.997  0.00  0.00    +0.143 C 
BRANCH  45  46
ATOM     46  CG  ASP A   5     -12.389 -15.793  27.729  0.00  0.00    +0.367 C 
ATOM     47  OD2 ASP A   5     -11.892 -15.384  28.795  0.00  0.00    -0.246 OA
ATOM     48  OD1 ASP A   5     -12.129 -16.929  27.246  0.00  0.00    -0.246 OA
ENDBRANCH  45  46
ENDBRANCH  33  45
ENDBRANCH  31  33
ENDBRANCH  28  29
BRANCH  28  49
ATOM     49  CB  TYR A   4     -15.251 -16.295  31.063  0.00  0.00    +0.055 C 
BRANCH  49  50
ATOM     50  CG  TYR A   4     -14.935 -14.914  31.605  0.00  0.00    -0.020 A 
ATOM     51  CD2 TYR A   4     -15.549 -14.442  32.763  0.00  0.00    -0.001 A 
ATOM     52  CE2 TYR A   4     -15.259 -13.170  33.275  0.00  0.00    +0.036 A 
ATOM     53  CZ  TYR A   4     -14.341 -12.357  32.618  0.00  0.00    +0.134 A 
ATOM     54  CE1 TYR A   4     -13.720 -12.803  31.455  0.00  0.00    +0.036 A 
ATOM     55  CD1 TYR A   4     -14.019 -14.077  30.957  0.00  0.00    -0.001 A 
BRANCH  53  56
ATOM     56  OH  TYR A   4     -14.025 -11.119  33.132  0.00  0.00    -0.506 OA
ATOM     57  HH  TYR A   4     -13.362 -10.678  32.544  0.00  0.00    +0.292 HD
ENDBRANCH  53  56
ENDBRANCH  49  50
ENDBRANCH  28  49
ENDBRANCH  25  28
ENDBRANCH   1  24
BRANCH   1  58
ATOM     58  CB  ARG A   3     -18.104 -19.794  27.564  0.00  0.00    +0.033 C 
BRANCH  58  59
ATOM     59  CG  ARG A   3     -18.285 -18.615  26.617  0.00  0.00    +0.045 C 
BRANCH  59  60
ATOM     60  CD  ARG A   3     -18.657 -18.984  25.201  0.00  0.00    +0.174 C 
BRANCH  60  61
ATOM     61  NE  ARG A   3     -17.537 -19.430  24.392  0.00  0.00    -0.265 N 
ATOM     62  HE  ARG A   3     -16.820 -20.038  24.836  0.00  0.00    +0.259 HD
ATOM     63  CZ  ARG A   3     -17.379 -19.102  23.113  0.00  0.00    +0.342 C 
ATOM     64  NH2 ARG A   3     -18.263 -18.318  22.509  0.00  0.00    -0.292 N 
ATOM     65 HH21 ARG A   3     -19.084 -17.957  23.036  0.00  0.00    +0.255 HD
ATOM     66 HH22 ARG A   3     -18.135 -18.064  21.509  0.00  0.00    +0.255 HD
ATOM     67  NH1 ARG A   3     -16.347 -19.572  22.433  0.00  0.00    -0.292 N 
ATOM     68 HH11 ARG A   3     -15.659 -20.198  22.898  0.00  0.00    +0.255 HD
ATOM     69 HH12 ARG A   3     -16.223 -19.316  21.433  0.00  0.00    +0.255 HD
ENDBRANCH  60  61
ENDBRANCH  59  60
ENDBRANCH  58  59
ENDBRANCH   1  58
TORSDOF 27
REMARK  Name = ../refined-set-2016/3c2r/3c2r_pocket.pdb
REMARK  174 active torsions:
REMARK  status: ('A' for Active; 'I' for Inactive)
REMARK    1  A    between atoms: _1  and  _3
REMARK    2  A    between atoms: _3  and  _4
REMARK    3  A    between atoms: _7  and  _9
REMARK    4  A    between atoms: _9  and  _10
REMARK    5  A    between atoms: _12  and  _14
REMARK    6  A    between atoms: _14  and  _15
REMARK    7  A    between atoms: _14  and  _17
REMARK    8  A    between atoms: _17  and  _18
REMARK    9  A    between atoms: _21  and  _23
REMARK   10  A    between atoms: _23  and  _24
REMARK   11  A    between atoms: _23  and  _26
REMARK   12  A    between atoms: _26  and  _27
REMARK   13  A    between atoms: _27  and  _28
REMARK   14  A    between atoms: _28  and  _29
REMARK   15  A    between atoms: _38  and  _40
REMARK   16  A    between atoms: _40  and  _41
REMARK   17  A    between atoms: _40  and  _43
REMARK   18  A    between atoms: _43  and  _44
REMARK   19  A    between atoms: _44  and  _45
REMARK   20  A    between atoms: _45  and  _46
REMARK   21  A    between atoms: _46  and  _47
REMARK   22  A    between atoms: _51  and  _53
REMARK   23  A    between atoms: _53  and  _54
REMARK   24  A    between atoms: _53  and  _56
REMARK   25  A    between atoms: _56  and  _57
REMARK   26  A    between atoms: _60  and  _62
REMARK   27  A    between atoms: _62  and  _63
REMARK   28  A    between atoms: _62  and  _65
REMARK   29  A    between atoms: _65  and  _66
REMARK   30  A    between atoms: _66  and  _67
REMARK   31  A    between atoms: _67  and  _68
REMARK   32  A    between atoms: _77  and  _79
REMARK   33  A    between atoms: _79  and  _80
REMARK   34  A    between atoms: _79  and  _82
REMARK   35  A    between atoms: _82  and  _83
REMARK   36  A    between atoms: _83  and  _84
REMARK   37  A    between atoms: _84  and  _85
REMARK   38  A    between atoms: _85  and  _86
REMARK   39  A    between atoms: _90  and  _92
REMARK   40  A    between atoms: _92  and  _93
REMARK   41  A    between atoms: _92  and  _95
REMARK   42  A    between atoms: _95  and  _96
REMARK   43  A    between atoms: _99  and  _101
REMARK   44  A    between atoms: _101  and  _102
REMARK   45  A    between atoms: _101  and  _104
REMARK   46  A    between atoms: _104  and  _105
REMARK   47  A    between atoms: _110  and  _112
REMARK   48  A    between atoms: _112  and  _113
REMARK   49  A    between atoms: _112  and  _115
REMARK   50  A    between atoms: _115  and  _116
REMARK   51  A    between atoms: _116  and  _117
REMARK   52  A    between atoms: _117  and  _118
REMARK   53  A    between atoms: _127  and  _129
REMARK   54  A    between atoms: _129  and  _130
REMARK   55  A    between atoms: _129  and  _132
REMARK   56  A    between atoms: _132  and  _133
REMARK   57  A    between atoms: _138  and  _139
REMARK   58  A    between atoms: _141  and  _143
REMARK   59  A    between atoms: _143  and  _144
REMARK   60  A    between atoms: _143  and  _146
REMARK   61  A    between atoms: _146  and  _147
REMARK   62  A    between atoms: _150  and  _152
REMARK   63  A    between atoms: _152  and  _153
REMARK   64  A    between atoms: _152  and  _155
REMARK   65  A    between atoms: _155  and  _156
REMARK   66  A    between atoms: _159  and  _161
REMARK   67  A    between atoms: _161  and  _162
REMARK   68  A    between atoms: _161  and  _164
REMARK   69  A    between atoms: _164  and  _165
REMARK   70  A    between atoms: _167  and  _169
REMARK   71  A    between atoms: _169  and  _170
REMARK   72  A    between atoms: _169  and  _172
REMARK   73  A    between atoms: _172  and  _173
REMARK   74  A    between atoms: _173  and  _174
REMARK   75  A    between atoms: _176  and  _178
REMARK   76  A    between atoms: _178  and  _179
REMARK   77  A    between atoms: _178  and  _181
REMARK   78  A    between atoms: _181  and  _182
REMARK   79  A    between atoms: _182  and  _183
REMARK   80  A    between atoms: _185  and  _187
REMARK   81  A    between atoms: _187  and  _188
REMARK   82  A    between atoms: _187  and  _190
REMARK   83  A    between atoms: _190  and  _191
REMARK   84  A    between atoms: _191  and  _192
REMARK   85  A    between atoms: _192  and  _193
REMARK   86  A    between atoms: _193  and  _194
REMARK   87  A    between atoms: _198  and  _200
REMARK   88  A    between atoms: _200  and  _201
REMARK   89  A    between atoms: _200  and  _203
REMARK   90  A    between atoms: _203  and  _204
REMARK   91  A    between atoms: _204  and  _205
REMARK   92  A    between atoms: _208  and  _210
REMARK   93  A    between atoms: _210  and  _211
REMARK   94  A    between atoms: _210  and  _213
REMARK   95  A    between atoms: _213  and  _214
REMARK   96  A    between atoms: _214  and  _215
REMARK   97  A    between atoms: _218  and  _220
REMARK   98  A    between atoms: _220  and  _221
REMARK   99  A    between atoms: _220  and  _223
REMARK  100  A    between atoms: _223  and  _224
REMARK  101  A    between atoms: _224  and  _225
REMARK  102  A    between atoms: _227  and  _229
REMARK  103  A    between atoms: _229  and  _230
REMARK  104  A    between atoms: _229  and  _232
REMARK  105  A    between atoms: _232  and  _233
REMARK  106  A    between atoms: _233  and  _234
REMARK  107  A    between atoms: _237  and  _239
REMARK  108  A    between atoms: _239  and  _240
REMARK  109  A    between atoms: _239  and  _242
REMARK  110  A    between atoms: _244  and  _246
REMARK  111  A    between atoms: _246  and  _247
REMARK  112  A    between atoms: _246  and  _249
REMARK  113  A    between atoms: _249  and  _250
REMARK  114  A    between atoms: _252  and  _254
REMARK  115  A    between atoms: _254  and  _255
REMARK  116  A    between atoms: _257  and  _259
REMARK  117  A    between atoms: _259  and  _260
REMARK  118  A    between atoms: _259  and  _262
REMARK  119  A    between atoms: _262  and  _263
REMARK  120  A    between atoms: _266  and  _268
REMARK  121  A    between atoms: _268  and  _269
REMARK  122  A    between atoms: _268  and  _271
REMARK  123  A    between atoms: _271  and  _272
REMARK  124  A    between atoms: _277  and  _278
REMARK  125  A    between atoms: _280  and  _282
REMARK  126  A    between atoms: _282  and  _283
REMARK  127  A    between atoms: _282  and  _285
REMARK  128  A    between atoms: _285  and  _286
REMARK  129  A    between atoms: _288  and  _290
REMARK  130  A    between atoms: _290  and  _291
REMARK  131  A    between atoms: _290  and  _293
REMARK  132  A    between atoms: _293  and  _294
REMARK  133  A    between atoms: _297  and  _299
REMARK  134  A    between atoms: _299  and  _300
REMARK  135  A    between atoms: _299  and  _302
REMARK  136  A    between atoms: _302  and  _303
REMARK  137  A    between atoms: _305  and  _307
REMARK  138  A    between atoms: _307  and  _308
REMARK  139  A    between atoms: _307  and  _310
REMARK  140  A    between atoms: _310  and  _311
REMARK  141  A    between atoms: _316  and  _318
REMARK  142  A    between atoms: _318  and  _319
REMARK  143  A    between atoms: _318  and  _321
REMARK  144  A    between atoms: _321  and  _322
REMARK  145  A    between atoms: _325  and  _327
REMARK  146  A    between atoms: _327  and  _328
REMARK  147  A    between atoms: _327  and  _330
REMARK  148  A    between atoms: _330  and  _331
REMARK  149  A    between atoms: _331  and  _332
REMARK  150  A    between atoms: _335  and  _337
REMARK  151  A    between atoms: _337  and  _338
REMARK  152  A    between atoms: _337  and  _340
REMARK  153  A    between atoms: _340  and  _341
REMARK  154  A    between atoms: _341  and  _342
REMARK  155  A    between atoms: _342  and  _343
REMARK  156  A    between atoms: _352  and  _354
REMARK  157  A    between atoms: _354  and  _355
REMARK  158  A    between atoms: _354  and  _357
REMARK  159  A    between atoms: _357  and  _358
REMARK  160  A    between atoms: _361  and  _363
REMARK  161  A    between atoms: _363  and  _364
REMARK  162  A    between atoms: _363  and  _366
REMARK  163  A    between atoms: _366  and  _367
REMARK  164  A    between atoms: _372  and  _374
REMARK  165  A    between atoms: _374  and  _375
REMARK  166  A    between atoms: _374  and  _377
REMARK  167  A    between atoms: _377  and  _378
REMARK  168  A    between atoms: _378  and  _379
REMARK  169  A    between atoms: _379  and  _380
REMARK  170  A    between atoms: _380  and  _381
REMARK  171  A    between atoms: _385  and  _387
REMARK  172  A    between atoms: _387  and  _388
REMARK  173  A    between atoms: _387  and  _390
REMARK  174  A    between atoms: _390  and  _391
REMARK                            x       y       z     vdW  Elec       q    Type
REMARK                         _______ _______ _______ _____ _____    ______ ____
ROOT
ATOM      1  C   SER A   1     -14.119 -21.873  27.496  0.00  0.00    +0.241 C 
ATOM      2  O   SER A   1     -14.654 -22.499  28.413  0.00  0.00    -0.274 OA
ATOM      3  N   MET A   2     -14.315 -22.180  26.225  0.00  0.00    -0.298 N 
ATOM      4  H   MET A   2     -13.849 -21.611  25.489  0.00  0.00    +0.150 HD
ENDROOT
BRANCH   1   5
ATOM      5  CA  SER A   1     -13.212 -20.675  27.812  0.00  0.00    +0.174 C 
BRANCH   5   6
ATOM      6  N   SER A   1     -12.649 -19.877  26.723  0.00  0.00    -0.236 NA
ATOM      7  H   SER A   1     -13.264 -19.194  26.235  0.00  0.00    +0.142 HD
ENDBRANCH   5   6
BRANCH   5   8
ATOM      8  CB  SER A   1     -13.977 -19.739  28.748  0.00  0.00    +0.163 C 
BRANCH   8   9
ATOM      9  OG  SER A   1     -13.163 -18.660  29.161  0.00  0.00    -0.380 OA
ATOM     10  H   SER A   1     -12.870 -18.146  28.367  0.00  0.00    +0.211 HD
ENDBRANCH   8   9
ENDBRANCH   5   8
ENDBRANCH   1   5
BRANCH   3  11
ATOM     11  CA  MET A   2     -15.168 -23.296  25.826  0.00  0.00    +0.138 C 
BRANCH  11  12
ATOM     12  C   MET A   2     -14.726 -23.000  24.423  0.00  0.00    +0.227 C 
ATOM     13  O   MET A   2     -14.158 -21.945  24.155  0.00  0.00    -0.286 OA
ENDBRANCH  11  12
BRANCH  11  14
ATOM     14  CB  MET A   2     -16.495 -23.354  26.606  0.00  0.00    +0.039 C 
BRANCH  14  15
ATOM     15  CG  MET A   2     -17.469 -24.391  25.998  0.00  0.00    +0.060 C 
BRANCH  15  16
ATOM     16  SD  MET A   2     -19.076 -24.677  26.804  0.00  0.00    -0.139 S 
ATOM     17  CE  MET A   2     -19.959 -23.216  26.255  0.00  0.00    +0.069 C 
ENDBRANCH  15  16
ENDBRANCH  14  15
ENDBRANCH  11  14
ENDBRANCH   3  11
TORSDOF 9
REMARK  Name = ../refined-set-2016/3c2r/3c2r_pocket.pdb
REMARK  174 active torsions:
REMARK  status: ('A' for Active; 'I' for Inactive)
REMARK    1  A    between atoms: _1  and  _3
REMARK    2  A    between atoms: _3  and  _4
REMARK    3  A    between atoms: _7  and  _9
REMARK    4  A    between atoms: _9  and  _10
REMARK    5  A    between atoms: _12  and  _14
REMARK    6  A    between atoms: _14  and  _15
REMARK    7  A    between atoms: _14  and  _17
REMARK    8  A    between atoms: _17  and  _18
REMARK    9  A    between atoms: _21  and  _23
REMARK   10  A    between atoms: _23  and  _24
REMARK   11  A    between atoms: _23  and  _26
REMARK   12  A    between atoms: _26  and  _27
REMARK   13  A    between atoms: _27  and  _28
REMARK   14  A    between atoms: _28  and  _29
REMARK   15  A    between atoms: _38  and  _40
REMARK   16  A    between atoms: _40  and  _41
REMARK   17  A    between atoms: _40  and  _43
REMARK   18  A    between atoms: _43  and  _44
REMARK   19  A    between atoms: _44  and  _45
REMARK   20  A    between atoms: _45  and  _46
REMARK   21  A    between atoms: _46  and  _47
REMARK   22  A    between atoms: _51  and  _53
REMARK   23  A    between atoms: _53  and  _54
REMARK   24  A    between atoms: _53  and  _56
REMARK   25  A    between atoms: _56  and  _57
REMARK   26  A    between atoms: _60  and  _62
REMARK   27  A    between atoms: _62  and  _63
REMARK   28  A    between atoms: _62  and  _65
REMARK   29  A    between atoms: _65  and  _66
REMARK   30  A    between atoms: _66  and  _67
REMARK   31  A    between atoms: _67  and  _68
REMARK   32  A    between atoms: _77  and  _79
REMARK   33  A    between atoms: _79  and  _80
REMARK   34  A    between atoms: _79  and  _82
REMARK   35  A    between atoms: _82  and  _83
REMARK   36  A    between atoms: _83  and  _84
REMARK   37  A    between atoms: _84  and  _85
REMARK   38  A    between atoms: _85  and  _86
REMARK   39  A    between atoms: _90  and  _92
REMARK   40  A    between atoms: _92  and  _93
REMARK   41  A    between atoms: _92  and  _95
REMARK   42  A    between atoms: _95  and  _96
REMARK   43  A    between atoms: _99  and  _101
REMARK   44  A    between atoms: _101  and  _102
REMARK   45  A    between atoms: _101  and  _104
REMARK   46  A    between atoms: _104  and  _105
REMARK   47  A    between atoms: _110  and  _112
REMARK   48  A    between atoms: _112  and  _113
REMARK   49  A    between atoms: _112  and  _115
REMARK   50  A    between atoms: _115  and  _116
REMARK   51  A    between atoms: _116  and  _117
REMARK   52  A    between atoms: _117  and  _118
REMARK   53  A    between atoms: _127  and  _129
REMARK   54  A    between atoms: _129  and  _130
REMARK   55  A    between atoms: _129  and  _132
REMARK   56  A    between atoms: _132  and  _133
REMARK   57  A    between atoms: _138  and  _139
REMARK   58  A    between atoms: _141  and  _143
REMARK   59  A    between atoms: _143  and  _144
REMARK   60  A    between atoms: _143  and  _146
REMARK   61  A    between atoms: _146  and  _147
REMARK   62  A    between atoms: _150  and  _152
REMARK   63  A    between atoms: _152  and  _153
REMARK   64  A    between atoms: _152  and  _155
REMARK   65  A    between atoms: _155  and  _156
REMARK   66  A    between atoms: _159  and  _161
REMARK   67  A    between atoms: _161  and  _162
REMARK   68  A    between atoms: _161  and  _164
REMARK   69  A    between atoms: _164  and  _165
REMARK   70  A    between atoms: _167  and  _169
REMARK   71  A    between atoms: _169  and  _170
REMARK   72  A    between atoms: _169  and  _172
REMARK   73  A    between atoms: _172  and  _173
REMARK   74  A    between atoms: _173  and  _174
REMARK   75  A    between atoms: _176  and  _178
REMARK   76  A    between atoms: _178  and  _179
REMARK   77  A    between atoms: _178  and  _181
REMARK   78  A    between atoms: _181  and  _182
REMARK   79  A    between atoms: _182  and  _183
REMARK   80  A    between atoms: _185  and  _187
REMARK   81  A    between atoms: _187  and  _188
REMARK   82  A    between atoms: _187  and  _190
REMARK   83  A    between atoms: _190  and  _191
REMARK   84  A    between atoms: _191  and  _192
REMARK   85  A    between atoms: _192  and  _193
REMARK   86  A    between atoms: _193  and  _194
REMARK   87  A    between atoms: _198  and  _200
REMARK   88  A    between atoms: _200  and  _201
REMARK   89  A    between atoms: _200  and  _203
REMARK   90  A    between atoms: _203  and  _204
REMARK   91  A    between atoms: _204  and  _205
REMARK   92  A    between atoms: _208  and  _210
REMARK   93  A    between atoms: _210  and  _211
REMARK   94  A    between atoms: _210  and  _213
REMARK   95  A    between atoms: _213  and  _214
REMARK   96  A    between atoms: _214  and  _215
REMARK   97  A    between atoms: _218  and  _220
REMARK   98  A    between atoms: _220  and  _221
REMARK   99  A    between atoms: _220  and  _223
REMARK  100  A    between atoms: _223  and  _224
REMARK  101  A    between atoms: _224  and  _225
REMARK  102  A    between atoms: _227  and  _229
REMARK  103  A    between atoms: _229  and  _230
REMARK  104  A    between atoms: _229  and  _232
REMARK  105  A    between atoms: _232  and  _233
REMARK  106  A    between atoms: _233  and  _234
REMARK  107  A    between atoms: _237  and  _239
REMARK  108  A    between atoms: _239  and  _240
REMARK  109  A    between atoms: _239  and  _242
REMARK  110  A    between atoms: _244  and  _246
REMARK  111  A    between atoms: _246  and  _247
REMARK  112  A    between atoms: _246  and  _249
REMARK  113  A    between atoms: _249  and  _250
REMARK  114  A    between atoms: _252  and  _254
REMARK  115  A    between atoms: _254  and  _255
REMARK  116  A    between atoms: _257  and  _259
REMARK  117  A    between atoms: _259  and  _260
REMARK  118  A    between atoms: _259  and  _262
REMARK  119  A    between atoms: _262  and  _263
REMARK  120  A    between atoms: _266  and  _268
REMARK  121  A    between atoms: _268  and  _269
REMARK  122  A    between atoms: _268  and  _271
REMARK  123  A    between atoms: _271  and  _272
REMARK  124  A    between atoms: _277  and  _278
REMARK  125  A    between atoms: _280  and  _282
REMARK  126  A    between atoms: _282  and  _283
REMARK  127  A    between atoms: _282  and  _285
REMARK  128  A    between atoms: _285  and  _286
REMARK  129  A    between atoms: _288  and  _290
REMARK  130  A    between atoms: _290  and  _291
REMARK  131  A    between atoms: _290  and  _293
REMARK  132  A    between atoms: _293  and  _294
REMARK  133  A    between atoms: _297  and  _299
REMARK  134  A    between atoms: _299  and  _300
REMARK  135  A    between atoms: _299  and  _302
REMARK  136  A    between atoms: _302  and  _303
REMARK  137  A    between atoms: _305  and  _307
REMARK  138  A    between atoms: _307  and  _308
REMARK  139  A    between atoms: _307  and  _310
REMARK  140  A    between atoms: _310  and  _311
REMARK  141  A    between atoms: _316  and  _318
REMARK  142  A    between atoms: _318  and  _319
REMARK  143  A    between atoms: _318  and  _321
REMARK  144  A    between atoms: _321  and  _322
REMARK  145  A    between atoms: _325  and  _327
REMARK  146  A    between atoms: _327  and  _328
REMARK  147  A    between atoms: _327  and  _330
REMARK  148  A    between atoms: _330  and  _331
REMARK  149  A    between atoms: _331  and  _332
REMARK  150  A    between atoms: _335  and  _337
REMARK  151  A    between atoms: _337  and  _338
REMARK  152  A    between atoms: _337  and  _340
REMARK  153  A    between atoms: _340  and  _341
REMARK  154  A    between atoms: _341  and  _342
REMARK  155  A    between atoms: _342  and  _343
REMARK  156  A    between atoms: _352  and  _354
REMARK  157  A    between atoms: _354  and  _355
REMARK  158  A    between atoms: _354  and  _357
REMARK  159  A    between atoms: _357  and  _358
REMARK  160  A    between atoms: _361  and  _363
REMARK  161  A    between atoms: _363  and  _364
REMARK  162  A    between atoms: _363  and  _366
REMARK  163  A    between atoms: _366  and  _367
REMARK  164  A    between atoms: _372  and  _374
REMARK  165  A    between atoms: _374  and  _375
REMARK  166  A    between atoms: _374  and  _377
REMARK  167  A    between atoms: _377  and  _378
REMARK  168  A    between atoms: _378  and  _379
REMARK  169  A    between atoms: _379  and  _380
REMARK  170  A    between atoms: _380  and  _381
REMARK  171  A    between atoms: _385  and  _387
REMARK  172  A    between atoms: _387  and  _388
REMARK  173  A    between atoms: _387  and  _390
REMARK  174  A    between atoms: _390  and  _391
REMARK                            x       y       z     vdW  Elec       q    Type
REMARK                         _______ _______ _______ _____ _____    ______ ____
ROOT
ATOM      1  CA  MET A   1     -18.556 -22.894  20.587  0.00  0.00    +0.134 C 
ENDROOT
BRANCH   1   2
ATOM      2  N   MET A   1     -17.169 -22.923  21.015  0.00  0.00    -0.239 NA
ATOM      3  H   MET A   1     -16.533 -22.156  20.717  0.00  0.00    +0.142 HD
ENDBRANCH   1   2
BRANCH   1   4
ATOM      4  C   MET A   1     -18.518 -22.882  19.074  0.00  0.00    +0.224 C 
ATOM      5  O   MET A   1     -18.214 -21.854  18.465  0.00  0.00    -0.287 OA
ENDBRANCH   1   4
BRANCH   1   6
ATOM      6  CB  MET A   1     -19.280 -21.647  21.106  0.00  0.00    +0.037 C 
BRANCH   6   7
ATOM      7  CG  MET A   1     -19.761 -21.769  22.538  0.00  0.00    +0.059 C 
BRANCH   7   8
ATOM      8  SD  MET A   1     -20.860 -20.426  23.042  0.00  0.00    -0.139 S 
ATOM      9  CE  MET A   1     -22.367 -20.865  22.181  0.00  0.00    +0.069 C 
ENDBRANCH   7   8
ENDBRANCH   6   7
ENDBRANCH   1   6
TORSDOF 5
REMARK  Name = ../refined-set-2016/3c2r/3c2r_pocket.pdb
REMARK  174 active torsions:
REMARK  status: ('A' for Active; 'I' for Inactive)
REMARK    1  A    between atoms: _1  and  _3
REMARK    2  A    between atoms: _3  and  _4
REMARK    3  A    between atoms: _7  and  _9
REMARK    4  A    between atoms: _9  and  _10
REMARK    5  A    between atoms: _12  and  _14
REMARK    6  A    between atoms: _14  and  _15
REMARK    7  A    between atoms: _14  and  _17
REMARK    8  A    between atoms: _17  and  _18
REMARK    9  A    between atoms: _21  and  _23
REMARK   10  A    between atoms: _23  and  _24
REMARK   11  A    between atoms: _23  and  _26
REMARK   12  A    between atoms: _26  and  _27
REMARK   13  A    between atoms: _27  and  _28
REMARK   14  A    between atoms: _28  and  _29
REMARK   15  A    between atoms: _38  and  _40
REMARK   16  A    between atoms: _40  and  _41
REMARK   17  A    between atoms: _40  and  _43
REMARK   18  A    between atoms: _43  and  _44
REMARK   19  A    between atoms: _44  and  _45
REMARK   20  A    between atoms: _45  and  _46
REMARK   21  A    between atoms: _46  and  _47
REMARK   22  A    between atoms: _51  and  _53
REMARK   23  A    between atoms: _53  and  _54
REMARK   24  A    between atoms: _53  and  _56
REMARK   25  A    between atoms: _56  and  _57
REMARK   26  A    between atoms: _60  and  _62
REMARK   27  A    between atoms: _62  and  _63
REMARK   28  A    between atoms: _62  and  _65
REMARK   29  A    between atoms: _65  and  _66
REMARK   30  A    between atoms: _66  and  _67
REMARK   31  A    between atoms: _67  and  _68
REMARK   32  A    between atoms: _77  and  _79
REMARK   33  A    between atoms: _79  and  _80
REMARK   34  A    between atoms: _79  and  _82
REMARK   35  A    between atoms: _82  and  _83
REMARK   36  A    between atoms: _83  and  _84
REMARK   37  A    between atoms: _84  and  _85
REMARK   38  A    between atoms: _85  and  _86
REMARK   39  A    between atoms: _90  and  _92
REMARK   40  A    between atoms: _92  and  _93
REMARK   41  A    between atoms: _92  and  _95
REMARK   42  A    between atoms: _95  and  _96
REMARK   43  A    between atoms: _99  and  _101
REMARK   44  A    between atoms: _101  and  _102
REMARK   45  A    between atoms: _101  and  _104
REMARK   46  A    between atoms: _104  and  _105
REMARK   47  A    between atoms: _110  and  _112
REMARK   48  A    between atoms: _112  and  _113
REMARK   49  A    between atoms: _112  and  _115
REMARK   50  A    between atoms: _115  and  _116
REMARK   51  A    between atoms: _116  and  _117
REMARK   52  A    between atoms: _117  and  _118
REMARK   53  A    between atoms: _127  and  _129
REMARK   54  A    between atoms: _129  and  _130
REMARK   55  A    between atoms: _129  and  _132
REMARK   56  A    between atoms: _132  and  _133
REMARK   57  A    between atoms: _138  and  _139
REMARK   58  A    between atoms: _141  and  _143
REMARK   59  A    between atoms: _143  and  _144
REMARK   60  A    between atoms: _143  and  _146
REMARK   61  A    between atoms: _146  and  _147
REMARK   62  A    between atoms: _150  and  _152
REMARK   63  A    between atoms: _152  and  _153
REMARK   64  A    between atoms: _152  and  _155
REMARK   65  A    between atoms: _155  and  _156
REMARK   66  A    between atoms: _159  and  _161
REMARK   67  A    between atoms: _161  and  _162
REMARK   68  A    between atoms: _161  and  _164
REMARK   69  A    between atoms: _164  and  _165
REMARK   70  A    between atoms: _167  and  _169
REMARK   71  A    between atoms: _169  and  _170
REMARK   72  A    between atoms: _169  and  _172
REMARK   73  A    between atoms: _172  and  _173
REMARK   74  A    between atoms: _173  and  _174
REMARK   75  A    between atoms: _176  and  _178
REMARK   76  A    between atoms: _178  and  _179
REMARK   77  A    between atoms: _178  and  _181
REMARK   78  A    between atoms: _181  and  _182
REMARK   79  A    between atoms: _182  and  _183
REMARK   80  A    between atoms: _185  and  _187
REMARK   81  A    between atoms: _187  and  _188
REMARK   82  A    between atoms: _187  and  _190
REMARK   83  A    between atoms: _190  and  _191
REMARK   84  A    between atoms: _191  and  _192
REMARK   85  A    between atoms: _192  and  _193
REMARK   86  A    between atoms: _193  and  _194
REMARK   87  A    between atoms: _198  and  _200
REMARK   88  A    between atoms: _200  and  _201
REMARK   89  A    between atoms: _200  and  _203
REMARK   90  A    between atoms: _203  and  _204
REMARK   91  A    between atoms: _204  and  _205
REMARK   92  A    between atoms: _208  and  _210
REMARK   93  A    between atoms: _210  and  _211
REMARK   94  A    between atoms: _210  and  _213
REMARK   95  A    between atoms: _213  and  _214
REMARK   96  A    between atoms: _214  and  _215
REMARK   97  A    between atoms: _218  and  _220
REMARK   98  A    between atoms: _220  and  _221
REMARK   99  A    between atoms: _220  and  _223
REMARK  100  A    between atoms: _223  and  _224
REMARK  101  A    between atoms: _224  and  _225
REMARK  102  A    between atoms: _227  and  _229
REMARK  103  A    between atoms: _229  and  _230
REMARK  104  A    between atoms: _229  and  _232
REMARK  105  A    between atoms: _232  and  _233
REMARK  106  A    between atoms: _233  and  _234
REMARK  107  A    between atoms: _237  and  _239
REMARK  108  A    between atoms: _239  and  _240
REMARK  109  A    between atoms: _239  and  _242
REMARK  110  A    between atoms: _244  and  _246
REMARK  111  A    between atoms: _246  and  _247
REMARK  112  A    between atoms: _246  and  _249
REMARK  113  A    between atoms: _249  and  _250
REMARK  114  A    between atoms: _252  and  _254
REMARK  115  A    between atoms: _254  and  _255
REMARK  116  A    between atoms: _257  and  _259
REMARK  117  A    between atoms: _259  and  _260
REMARK  118  A    between atoms: _259  and  _262
REMARK  119  A    between atoms: _262  and  _263
REMARK  120  A    between atoms: _266  and  _268
REMARK  121  A    between atoms: _268  and  _269
REMARK  122  A    between atoms: _268  and  _271
REMARK  123  A    between atoms: _271  and  _272
REMARK  124  A    between atoms: _277  and  _278
REMARK  125  A    between atoms: _280  and  _282
REMARK  126  A    between atoms: _282  and  _283
REMARK  127  A    between atoms: _282  and  _285
REMARK  128  A    between atoms: _285  and  _286
REMARK  129  A    between atoms: _288  and  _290
REMARK  130  A    between atoms: _290  and  _291
REMARK  131  A    between atoms: _290  and  _293
REMARK  132  A    between atoms: _293  and  _294
REMARK  133  A    between atoms: _297  and  _299
REMARK  134  A    between atoms: _299  and  _300
REMARK  135  A    between atoms: _299  and  _302
REMARK  136  A    between atoms: _302  and  _303
REMARK  137  A    between atoms: _305  and  _307
REMARK  138  A    between atoms: _307  and  _308
REMARK  139  A    between atoms: _307  and  _310
REMARK  140  A    between atoms: _310  and  _311
REMARK  141  A    between atoms: _316  and  _318
REMARK  142  A    between atoms: _318  and  _319
REMARK  143  A    between atoms: _318  and  _321
REMARK  144  A    between atoms: _321  and  _322
REMARK  145  A    between atoms: _325  and  _327
REMARK  146  A    between atoms: _327  and  _328
REMARK  147  A    between atoms: _327  and  _330
REMARK  148  A    between atoms: _330  and  _331
REMARK  149  A    between atoms: _331  and  _332
REMARK  150  A    between atoms: _335  and  _337
REMARK  151  A    between atoms: _337  and  _338
REMARK  152  A    between atoms: _337  and  _340
REMARK  153  A    between atoms: _340  and  _341
REMARK  154  A    between atoms: _341  and  _342
REMARK  155  A    between atoms: _342  and  _343
REMARK  156  A    between atoms: _352  and  _354
REMARK  157  A    between atoms: _354  and  _355
REMARK  158  A    between atoms: _354  and  _357
REMARK  159  A    between atoms: _357  and  _358
REMARK  160  A    between atoms: _361  and  _363
REMARK  161  A    between atoms: _363  and  _364
REMARK  162  A    between atoms: _363  and  _366
REMARK  163  A    between atoms: _366  and  _367
REMARK  164  A    between atoms: _372  and  _374
REMARK  165  A    between atoms: _374  and  _375
REMARK  166  A    between atoms: _374  and  _377
REMARK  167  A    between atoms: _377  and  _378
REMARK  168  A    between atoms: _378  and  _379
REMARK  169  A    between atoms: _379  and  _380
REMARK  170  A    between atoms: _380  and  _381
REMARK  171  A    between atoms: _385  and  _387
REMARK  172  A    between atoms: _387  and  _388
REMARK  173  A    between atoms: _387  and  _390
REMARK  174  A    between atoms: _390  and  _391
REMARK                            x       y       z     vdW  Elec       q    Type
REMARK                         _______ _______ _______ _____ _____    ______ ____
ROOT
ATOM      1  CG  LYS A   1     -22.444 -21.113  15.733  0.00  0.00    -0.000 C 
ENDROOT
BRANCH   1   2
ATOM      2  CB  LYS A   1     -21.863 -21.685  14.450  0.00  0.00    +0.025 C 
BRANCH   2   3
ATOM      3  CA  LYS A   1     -21.479 -23.170  14.519  0.00  0.00    +0.133 C 
BRANCH   3   4
ATOM      4  N   LYS A   1     -20.239 -23.358  15.263  0.00  0.00    -0.239 NA
ATOM      5  H   LYS A   1     -19.365 -22.932  14.895  0.00  0.00    +0.142 HD
ENDBRANCH   3   4
BRANCH   3   6
ATOM      6  C   LYS A   1     -21.316 -23.717  13.098  0.00  0.00    +0.224 C 
ATOM      7  O   LYS A   1     -20.309 -24.344  12.759  0.00  0.00    -0.287 OA
ENDBRANCH   3   6
ENDBRANCH   2   3
ENDBRANCH   1   2
BRANCH   1   8
ATOM      8  CD  LYS A   1     -21.413 -21.062  16.842  0.00  0.00    -0.024 C 
BRANCH   8   9
ATOM      9  CE  LYS A   1     -22.023 -20.548  18.134  0.00  0.00    -0.086 C 
BRANCH   9  10
ATOM     10  NZ  LYS A   1     -22.578 -19.175  17.985  0.00  0.00    +0.380 N 
ATOM     11  HZ1 LYS A   1     -22.983 -18.866  18.892  0.00  0.00    -0.089 HD
ATOM     12  HZ2 LYS A   1     -21.818 -18.524  17.704  0.00  0.00    -0.089 HD
ATOM     13  HZ3 LYS A   1     -23.319 -19.179  17.256  0.00  0.00    -0.089 HD
ENDBRANCH   9  10
ENDBRANCH   8   9
ENDBRANCH   1   8
TORSDOF 7
REMARK  Name = ../refined-set-2016/3c2r/3c2r_pocket.pdb
REMARK  174 active torsions:
REMARK  status: ('A' for Active; 'I' for Inactive)
REMARK    1  A    between atoms: _1  and  _3
REMARK    2  A    between atoms: _3  and  _4
REMARK    3  A    between atoms: _7  and  _9
REMARK    4  A    between atoms: _9  and  _10
REMARK    5  A    between atoms: _12  and  _14
REMARK    6  A    between atoms: _14  and  _15
REMARK    7  A    between atoms: _14  and  _17
REMARK    8  A    between atoms: _17  and  _18
REMARK    9  A    between atoms: _21  and  _23
REMARK   10  A    between atoms: _23  and  _24
REMARK   11  A    between atoms: _23  and  _26
REMARK   12  A    between atoms: _26  and  _27
REMARK   13  A    between atoms: _27  and  _28
REMARK   14  A    between atoms: _28  and  _29
REMARK   15  A    between atoms: _38  and  _40
REMARK   16  A    between atoms: _40  and  _41
REMARK   17  A    between atoms: _40  and  _43
REMARK   18  A    between atoms: _43  and  _44
REMARK   19  A    between atoms: _44  and  _45
REMARK   20  A    between atoms: _45  and  _46
REMARK   21  A    between atoms: _46  and  _47
REMARK   22  A    between atoms: _51  and  _53
REMARK   23  A    between atoms: _53  and  _54
REMARK   24  A    between atoms: _53  and  _56
REMARK   25  A    between atoms: _56  and  _57
REMARK   26  A    between atoms: _60  and  _62
REMARK   27  A    between atoms: _62  and  _63
REMARK   28  A    between atoms: _62  and  _65
REMARK   29  A    between atoms: _65  and  _66
REMARK   30  A    between atoms: _66  and  _67
REMARK   31  A    between atoms: _67  and  _68
REMARK   32  A    between atoms: _77  and  _79
REMARK   33  A    between atoms: _79  and  _80
REMARK   34  A    between atoms: _79  and  _82
REMARK   35  A    between atoms: _82  and  _83
REMARK   36  A    between atoms: _83  and  _84
REMARK   37  A    between atoms: _84  and  _85
REMARK   38  A    between atoms: _85  and  _86
REMARK   39  A    between atoms: _90  and  _92
REMARK   40  A    between atoms: _92  and  _93
REMARK   41  A    between atoms: _92  and  _95
REMARK   42  A    between atoms: _95  and  _96
REMARK   43  A    between atoms: _99  and  _101
REMARK   44  A    between atoms: _101  and  _102
REMARK   45  A    between atoms: _101  and  _104
REMARK   46  A    between atoms: _104  and  _105
REMARK   47  A    between atoms: _110  and  _112
REMARK   48  A    between atoms: _112  and  _113
REMARK   49  A    between atoms: _112  and  _115
REMARK   50  A    between atoms: _115  and  _116
REMARK   51  A    between atoms: _116  and  _117
REMARK   52  A    between atoms: _117  and  _118
REMARK   53  A    between atoms: _127  and  _129
REMARK   54  A    between atoms: _129  and  _130
REMARK   55  A    between atoms: _129  and  _132
REMARK   56  A    between atoms: _132  and  _133
REMARK   57  A    between atoms: _138  and  _139
REMARK   58  A    between atoms: _141  and  _143
REMARK   59  A    between atoms: _143  and  _144
REMARK   60  A    between atoms: _143  and  _146
REMARK   61  A    between atoms: _146  and  _147
REMARK   62  A    between atoms: _150  and  _152
REMARK   63  A    between atoms: _152  and  _153
REMARK   64  A    between atoms: _152  and  _155
REMARK   65  A    between atoms: _155  and  _156
REMARK   66  A    between atoms: _159  and  _161
REMARK   67  A    between atoms: _161  and  _162
REMARK   68  A    between atoms: _161  and  _164
REMARK   69  A    between atoms: _164  and  _165
REMARK   70  A    between atoms: _167  and  _169
REMARK   71  A    between atoms: _169  and  _170
REMARK   72  A    between atoms: _169  and  _172
REMARK   73  A    between atoms: _172  and  _173
REMARK   74  A    between atoms: _173  and  _174
REMARK   75  A    between atoms: _176  and  _178
REMARK   76  A    between atoms: _178  and  _179
REMARK   77  A    between atoms: _178  and  _181
REMARK   78  A    between atoms: _181  and  _182
REMARK   79  A    between atoms: _182  and  _183
REMARK   80  A    between atoms: _185  and  _187
REMARK   81  A    between atoms: _187  and  _188
REMARK   82  A    between atoms: _187  and  _190
REMARK   83  A    between atoms: _190  and  _191
REMARK   84  A    between atoms: _191  and  _192
REMARK   85  A    between atoms: _192  and  _193
REMARK   86  A    between atoms: _193  and  _194
REMARK   87  A    between atoms: _198  and  _200
REMARK   88  A    between atoms: _200  and  _201
REMARK   89  A    between atoms: _200  and  _203
REMARK   90  A    between atoms: _203  and  _204
REMARK   91  A    between atoms: _204  and  _205
REMARK   92  A    between atoms: _208  and  _210
REMARK   93  A    between atoms: _210  and  _211
REMARK   94  A    between atoms: _210  and  _213
REMARK   95  A    between atoms: _213  and  _214
REMARK   96  A    between atoms: _214  and  _215
REMARK   97  A    between atoms: _218  and  _220
REMARK   98  A    between atoms: _220  and  _221
REMARK   99  A    between atoms: _220  and  _223
REMARK  100  A    between atoms: _223  and  _224
REMARK  101  A    between atoms: _224  and  _225
REMARK  102  A    between atoms: _227  and  _229
REMARK  103  A    between atoms: _229  and  _230
REMARK  104  A    between atoms: _229  and  _232
REMARK  105  A    between atoms: _232  and  _233
REMARK  106  A    between atoms: _233  and  _234
REMARK  107  A    between atoms: _237  and  _239
REMARK  108  A    between atoms: _239  and  _240
REMARK  109  A    between atoms: _239  and  _242
REMARK  110  A    between atoms: _244  and  _246
REMARK  111  A    between atoms: _246  and  _247
REMARK  112  A    between atoms: _246  and  _249
REMARK  113  A    between atoms: _249  and  _250
REMARK  114  A    between atoms: _252  and  _254
REMARK  115  A    between atoms: _254  and  _255
REMARK  116  A    between atoms: _257  and  _259
REMARK  117  A    between atoms: _259  and  _260
REMARK  118  A    between atoms: _259  and  _262
REMARK  119  A    between atoms: _262  and  _263
REMARK  120  A    between atoms: _266  and  _268
REMARK  121  A    between atoms: _268  and  _269
REMARK  122  A    between atoms: _268  and  _271
REMARK  123  A    between atoms: _271  and  _272
REMARK  124  A    between atoms: _277  and  _278
REMARK  125  A    between atoms: _280  and  _282
REMARK  126  A    between atoms: _282  and  _283
REMARK  127  A    between atoms: _282  and  _285
REMARK  128  A    between atoms: _285  and  _286
REMARK  129  A    between atoms: _288  and  _290
REMARK  130  A    between atoms: _290  and  _291
REMARK  131  A    between atoms: _290  and  _293
REMARK  132  A    between atoms: _293  and  _294
REMARK  133  A    between atoms: _297  and  _299
REMARK  134  A    between atoms: _299  and  _300
REMARK  135  A    between atoms: _299  and  _302
REMARK  136  A    between atoms: _302  and  _303
REMARK  137  A    between atoms: _305  and  _307
REMARK  138  A    between atoms: _307  and  _308
REMARK  139  A    between atoms: _307  and  _310
REMARK  140  A    between atoms: _310  and  _311
REMARK  141  A    between atoms: _316  and  _318
REMARK  142  A    between atoms: _318  and  _319
REMARK  143  A    between atoms: _318  and  _321
REMARK  144  A    between atoms: _321  and  _322
REMARK  145  A    between atoms: _325  and  _327
REMARK  146  A    between atoms: _327  and  _328
REMARK  147  A    between atoms: _327  and  _330
REMARK  148  A    between atoms: _330  and  _331
REMARK  149  A    between atoms: _331  and  _332
REMARK  150  A    between atoms: _335  and  _337
REMARK  151  A    between atoms: _337  and  _338
REMARK  152  A    between atoms: _337  and  _340
REMARK  153  A    between atoms: _340  and  _341
REMARK  154  A    between atoms: _341  and  _342
REMARK  155  A    between atoms: _342  and  _343
REMARK  156  A    between atoms: _352  and  _354
REMARK  157  A    between atoms: _354  and  _355
REMARK  158  A    between atoms: _354  and  _357
REMARK  159  A    between atoms: _357  and  _358
REMARK  160  A    between atoms: _361  and  _363
REMARK  161  A    between atoms: _363  and  _364
REMARK  162  A    between atoms: _363  and  _366
REMARK  163  A    between atoms: _366  and  _367
REMARK  164  A    between atoms: _372  and  _374
REMARK  165  A    between atoms: _374  and  _375
REMARK  166  A    between atoms: _374  and  _377
REMARK  167  A    between atoms: _377  and  _378
REMARK  168  A    between atoms: _378  and  _379
REMARK  169  A    between atoms: _379  and  _380
REMARK  170  A    between atoms: _380  and  _381
REMARK  171  A    between atoms: _385  and  _387
REMARK  172  A    between atoms: _387  and  _388
REMARK  173  A    between atoms: _387  and  _390
REMARK  174  A    between atoms: _390  and  _391
REMARK                            x       y       z     vdW  Elec       q    Type
REMARK                         _______ _______ _______ _____ _____    ______ ____
ROOT
ATOM      1  CA  GLU A   1     -20.275 -27.039  22.333  0.00  0.00    +0.134 C 
ENDROOT
BRANCH   1   2
ATOM      2  N   GLU A   1     -18.843 -27.071  22.573  0.00  0.00    -0.239 NA
ATOM      3  H   GLU A   1     -18.266 -26.229  22.373  0.00  0.00    +0.142 HD
ENDBRANCH   1   2
BRANCH   1   4
ATOM      4  C   GLU A   1     -20.496 -26.876  20.838  0.00  0.00    +0.224 C 
ATOM      5  O   GLU A   1     -19.799 -26.096  20.188  0.00  0.00    -0.287 OA
ENDBRANCH   1   4
BRANCH   1   6
ATOM      6  CB  GLU A   1     -20.926 -25.882  23.095  0.00  0.00    +0.037 C 
BRANCH   6   7
ATOM      7  CG  GLU A   1     -22.401 -25.678  22.769  0.00  0.00    +0.116 C 
BRANCH   7   8
ATOM      8  CD  GLU A   1     -23.057 -24.626  23.647  0.00  0.00    +0.365 C 
ATOM      9  OE2 GLU A   1     -24.238 -24.799  24.023  0.00  0.00    -0.246 OA
ATOM     10  OE1 GLU A   1     -22.389 -23.617  23.948  0.00  0.00    -0.246 OA
ENDBRANCH   7   8
ENDBRANCH   6   7
ENDBRANCH   1   6
TORSDOF 5
REMARK  Name = ../refined-set-2016/3c2r/3c2r_pocket.pdb
REMARK  174 active torsions:
REMARK  status: ('A' for Active; 'I' for Inactive)
REMARK    1  A    between atoms: _1  and  _3
REMARK    2  A    between atoms: _3  and  _4
REMARK    3  A    between atoms: _7  and  _9
REMARK    4  A    between atoms: _9  and  _10
REMARK    5  A    between atoms: _12  and  _14
REMARK    6  A    between atoms: _14  and  _15
REMARK    7  A    between atoms: _14  and  _17
REMARK    8  A    between atoms: _17  and  _18
REMARK    9  A    between atoms: _21  and  _23
REMARK   10  A    between atoms: _23  and  _24
REMARK   11  A    between atoms: _23  and  _26
REMARK   12  A    between atoms: _26  and  _27
REMARK   13  A    between atoms: _27  and  _28
REMARK   14  A    between atoms: _28  and  _29
REMARK   15  A    between atoms: _38  and  _40
REMARK   16  A    between atoms: _40  and  _41
REMARK   17  A    between atoms: _40  and  _43
REMARK   18  A    between atoms: _43  and  _44
REMARK   19  A    between atoms: _44  and  _45
REMARK   20  A    between atoms: _45  and  _46
REMARK   21  A    between atoms: _46  and  _47
REMARK   22  A    between atoms: _51  and  _53
REMARK   23  A    between atoms: _53  and  _54
REMARK   24  A    between atoms: _53  and  _56
REMARK   25  A    between atoms: _56  and  _57
REMARK   26  A    between atoms: _60  and  _62
REMARK   27  A    between atoms: _62  and  _63
REMARK   28  A    between atoms: _62  and  _65
REMARK   29  A    between atoms: _65  and  _66
REMARK   30  A    between atoms: _66  and  _67
REMARK   31  A    between atoms: _67  and  _68
REMARK   32  A    between atoms: _77  and  _79
REMARK   33  A    between atoms: _79  and  _80
REMARK   34  A    between atoms: _79  and  _82
REMARK   35  A    between atoms: _82  and  _83
REMARK   36  A    between atoms: _83  and  _84
REMARK   37  A    between atoms: _84  and  _85
REMARK   38  A    between atoms: _85  and  _86
REMARK   39  A    between atoms: _90  and  _92
REMARK   40  A    between atoms: _92  and  _93
REMARK   41  A    between atoms: _92  and  _95
REMARK   42  A    between atoms: _95  and  _96
REMARK   43  A    between atoms: _99  and  _101
REMARK   44  A    between atoms: _101  and  _102
REMARK   45  A    between atoms: _101  and  _104
REMARK   46  A    between atoms: _104  and  _105
REMARK   47  A    between atoms: _110  and  _112
REMARK   48  A    between atoms: _112  and  _113
REMARK   49  A    between atoms: _112  and  _115
REMARK   50  A    between atoms: _115  and  _116
REMARK   51  A    between atoms: _116  and  _117
REMARK   52  A    between atoms: _117  and  _118
REMARK   53  A    between atoms: _127  and  _129
REMARK   54  A    between atoms: _129  and  _130
REMARK   55  A    between atoms: _129  and  _132
REMARK   56  A    between atoms: _132  and  _133
REMARK   57  A    between atoms: _138  and  _139
REMARK   58  A    between atoms: _141  and  _143
REMARK   59  A    between atoms: _143  and  _144
REMARK   60  A    between atoms: _143  and  _146
REMARK   61  A    between atoms: _146  and  _147
REMARK   62  A    between atoms: _150  and  _152
REMARK   63  A    between atoms: _152  and  _153
REMARK   64  A    between atoms: _152  and  _155
REMARK   65  A    between atoms: _155  and  _156
REMARK   66  A    between atoms: _159  and  _161
REMARK   67  A    between atoms: _161  and  _162
REMARK   68  A    between atoms: _161  and  _164
REMARK   69  A    between atoms: _164  and  _165
REMARK   70  A    between atoms: _167  and  _169
REMARK   71  A    between atoms: _169  and  _170
REMARK   72  A    between atoms: _169  and  _172
REMARK   73  A    between atoms: _172  and  _173
REMARK   74  A    between atoms: _173  and  _174
REMARK   75  A    between atoms: _176  and  _178
REMARK   76  A    between atoms: _178  and  _179
REMARK   77  A    between atoms: _178  and  _181
REMARK   78  A    between atoms: _181  and  _182
REMARK   79  A    between atoms: _182  and  _183
REMARK   80  A    between atoms: _185  and  _187
REMARK   81  A    between atoms: _187  and  _188
REMARK   82  A    between atoms: _187  and  _190
REMARK   83  A    between atoms: _190  and  _191
REMARK   84  A    between atoms: _191  and  _192
REMARK   85  A    between atoms: _192  and  _193
REMARK   86  A    between atoms: _193  and  _194
REMARK   87  A    between atoms: _198  and  _200
REMARK   88  A    between atoms: _200  and  _201
REMARK   89  A    between atoms: _200  and  _203
REMARK   90  A    between atoms: _203  and  _204
REMARK   91  A    between atoms: _204  and  _205
REMARK   92  A    between atoms: _208  and  _210
REMARK   93  A    between atoms: _210  and  _211
REMARK   94  A    between atoms: _210  and  _213
REMARK   95  A    between atoms: _213  and  _214
REMARK   96  A    between atoms: _214  and  _215
REMARK   97  A    between atoms: _218  and  _220
REMARK   98  A    between atoms: _220  and  _221
REMARK   99  A    between atoms: _220  and  _223
REMARK  100  A    between atoms: _223  and  _224
REMARK  101  A    between atoms: _224  and  _225
REMARK  102  A    between atoms: _227  and  _229
REMARK  103  A    between atoms: _229  and  _230
REMARK  104  A    between atoms: _229  and  _232
REMARK  105  A    between atoms: _232  and  _233
REMARK  106  A    between atoms: _233  and  _234
REMARK  107  A    between atoms: _237  and  _239
REMARK  108  A    between atoms: _239  and  _240
REMARK  109  A    between atoms: _239  and  _242
REMARK  110  A    between atoms: _244  and  _246
REMARK  111  A    between atoms: _246  and  _247
REMARK  112  A    between atoms: _246  and  _249
REMARK  113  A    between atoms: _249  and  _250
REMARK  114  A    between atoms: _252  and  _254
REMARK  115  A    between atoms: _254  and  _255
REMARK  116  A    between atoms: _257  and  _259
REMARK  117  A    between atoms: _259  and  _260
REMARK  118  A    between atoms: _259  and  _262
REMARK  119  A    between atoms: _262  and  _263
REMARK  120  A    between atoms: _266  and  _268
REMARK  121  A    between atoms: _268  and  _269
REMARK  122  A    between atoms: _268  and  _271
REMARK  123  A    between atoms: _271  and  _272
REMARK  124  A    between atoms: _277  and  _278
REMARK  125  A    between atoms: _280  and  _282
REMARK  126  A    between atoms: _282  and  _283
REMARK  127  A    between atoms: _282  and  _285
REMARK  128  A    between atoms: _285  and  _286
REMARK  129  A    between atoms: _288  and  _290
REMARK  130  A    between atoms: _290  and  _291
REMARK  131  A    between atoms: _290  and  _293
REMARK  132  A    between atoms: _293  and  _294
REMARK  133  A    between atoms: _297  and  _299
REMARK  134  A    between atoms: _299  and  _300
REMARK  135  A    between atoms: _299  and  _302
REMARK  136  A    between atoms: _302  and  _303
REMARK  137  A    between atoms: _305  and  _307
REMARK  138  A    between atoms: _307  and  _308
REMARK  139  A    between atoms: _307  and  _310
REMARK  140  A    between atoms: _310  and  _311
REMARK  141  A    between atoms: _316  and  _318
REMARK  142  A    between atoms: _318  and  _319
REMARK  143  A    between atoms: _318  and  _321
REMARK  144  A    between atoms: _321  and  _322
REMARK  145  A    between atoms: _325  and  _327
REMARK  146  A    between atoms: _327  and  _328
REMARK  147  A    between atoms: _327  and  _330
REMARK  148  A    between atoms: _330  and  _331
REMARK  149  A    between atoms: _331  and  _332
REMARK  150  A    between atoms: _335  and  _337
REMARK  151  A    between atoms: _337  and  _338
REMARK  152  A    between atoms: _337  and  _340
REMARK  153  A    between atoms: _340  and  _341
REMARK  154  A    between atoms: _341  and  _342
REMARK  155  A    between atoms: _342  and  _343
REMARK  156  A    between atoms: _352  and  _354
REMARK  157  A    between atoms: _354  and  _355
REMARK  158  A    between atoms: _354  and  _357
REMARK  159  A    between atoms: _357  and  _358
REMARK  160  A    between atoms: _361  and  _363
REMARK  161  A    between atoms: _363  and  _364
REMARK  162  A    between atoms: _363  and  _366
REMARK  163  A    between atoms: _366  and  _367
REMARK  164  A    between atoms: _372  and  _374
REMARK  165  A    between atoms: _374  and  _375
REMARK  166  A    between atoms: _374  and  _377
REMARK  167  A    between atoms: _377  and  _378
REMARK  168  A    between atoms: _378  and  _379
REMARK  169  A    between atoms: _379  and  _380
REMARK  170  A    between atoms: _380  and  _381
REMARK  171  A    between atoms: _385  and  _387
REMARK  172  A    between atoms: _387  and  _388
REMARK  173  A    between atoms: _387  and  _390
REMARK  174  A    between atoms: _390  and  _391
REMARK                            x       y       z     vdW  Elec       q    Type
REMARK                         _______ _______ _______ _____ _____    ______ ____
ROOT
ATOM      1  CA  GLU A   1     -24.786 -25.609  17.603  0.00  0.00    +0.134 C 
ENDROOT
BRANCH   1   2
ATOM      2  N   GLU A   1     -23.443 -26.133  17.837  0.00  0.00    -0.239 NA
ATOM      3  H   GLU A   1     -22.643 -25.731  17.308  0.00  0.00    +0.142 HD
ENDBRANCH   1   2
BRANCH   1   4
ATOM      4  C   GLU A   1     -25.533 -26.390  16.519  0.00  0.00    +0.224 C 
ATOM      5  O   GLU A   1     -25.737 -25.887  15.414  0.00  0.00    -0.287 OA
ENDBRANCH   1   4
BRANCH   1   6
ATOM      6  CB  GLU A   1     -24.706 -24.134  17.206  0.00  0.00    +0.037 C 
BRANCH   6   7
ATOM      7  CG  GLU A   1     -26.056 -23.456  17.098  0.00  0.00    +0.116 C 
BRANCH   7   8
ATOM      8  CD  GLU A   1     -25.948 -22.014  16.653  0.00  0.00    +0.365 C 
ATOM      9  OE2 GLU A   1     -25.191 -21.248  17.285  0.00  0.00    -0.246 OA
ATOM     10  OE1 GLU A   1     -26.625 -21.645  15.673  0.00  0.00    -0.246 OA
ENDBRANCH   7   8
ENDBRANCH   6   7
ENDBRANCH   1   6
TORSDOF 5
REMARK  Name = ../refined-set-2016/3c2r/3c2r_pocket.pdb
REMARK  174 active torsions:
REMARK  status: ('A' for Active; 'I' for Inactive)
REMARK    1  A    between atoms: _1  and  _3
REMARK    2  A    between atoms: _3  and  _4
REMARK    3  A    between atoms: _7  and  _9
REMARK    4  A    between atoms: _9  and  _10
REMARK    5  A    between atoms: _12  and  _14
REMARK    6  A    between atoms: _14  and  _15
REMARK    7  A    between atoms: _14  and  _17
REMARK    8  A    between atoms: _17  and  _18
REMARK    9  A    between atoms: _21  and  _23
REMARK   10  A    between atoms: _23  and  _24
REMARK   11  A    between atoms: _23  and  _26
REMARK   12  A    between atoms: _26  and  _27
REMARK   13  A    between atoms: _27  and  _28
REMARK   14  A    between atoms: _28  and  _29
REMARK   15  A    between atoms: _38  and  _40
REMARK   16  A    between atoms: _40  and  _41
REMARK   17  A    between atoms: _40  and  _43
REMARK   18  A    between atoms: _43  and  _44
REMARK   19  A    between atoms: _44  and  _45
REMARK   20  A    between atoms: _45  and  _46
REMARK   21  A    between atoms: _46  and  _47
REMARK   22  A    between atoms: _51  and  _53
REMARK   23  A    between atoms: _53  and  _54
REMARK   24  A    between atoms: _53  and  _56
REMARK   25  A    between atoms: _56  and  _57
REMARK   26  A    between atoms: _60  and  _62
REMARK   27  A    between atoms: _62  and  _63
REMARK   28  A    between atoms: _62  and  _65
REMARK   29  A    between atoms: _65  and  _66
REMARK   30  A    between atoms: _66  and  _67
REMARK   31  A    between atoms: _67  and  _68
REMARK   32  A    between atoms: _77  and  _79
REMARK   33  A    between atoms: _79  and  _80
REMARK   34  A    between atoms: _79  and  _82
REMARK   35  A    between atoms: _82  and  _83
REMARK   36  A    between atoms: _83  and  _84
REMARK   37  A    between atoms: _84  and  _85
REMARK   38  A    between atoms: _85  and  _86
REMARK   39  A    between atoms: _90  and  _92
REMARK   40  A    between atoms: _92  and  _93
REMARK   41  A    between atoms: _92  and  _95
REMARK   42  A    between atoms: _95  and  _96
REMARK   43  A    between atoms: _99  and  _101
REMARK   44  A    between atoms: _101  and  _102
REMARK   45  A    between atoms: _101  and  _104
REMARK   46  A    between atoms: _104  and  _105
REMARK   47  A    between atoms: _110  and  _112
REMARK   48  A    between atoms: _112  and  _113
REMARK   49  A    between atoms: _112  and  _115
REMARK   50  A    between atoms: _115  and  _116
REMARK   51  A    between atoms: _116  and  _117
REMARK   52  A    between atoms: _117  and  _118
REMARK   53  A    between atoms: _127  and  _129
REMARK   54  A    between atoms: _129  and  _130
REMARK   55  A    between atoms: _129  and  _132
REMARK   56  A    between atoms: _132  and  _133
REMARK   57  A    between atoms: _138  and  _139
REMARK   58  A    between atoms: _141  and  _143
REMARK   59  A    between atoms: _143  and  _144
REMARK   60  A    between atoms: _143  and  _146
REMARK   61  A    between atoms: _146  and  _147
REMARK   62  A    between atoms: _150  and  _152
REMARK   63  A    between atoms: _152  and  _153
REMARK   64  A    between atoms: _152  and  _155
REMARK   65  A    between atoms: _155  and  _156
REMARK   66  A    between atoms: _159  and  _161
REMARK   67  A    between atoms: _161  and  _162
REMARK   68  A    between atoms: _161  and  _164
REMARK   69  A    between atoms: _164  and  _165
REMARK   70  A    between atoms: _167  and  _169
REMARK   71  A    between atoms: _169  and  _170
REMARK   72  A    between atoms: _169  and  _172
REMARK   73  A    between atoms: _172  and  _173
REMARK   74  A    between atoms: _173  and  _174
REMARK   75  A    between atoms: _176  and  _178
REMARK   76  A    between atoms: _178  and  _179
REMARK   77  A    between atoms: _178  and  _181
REMARK   78  A    between atoms: _181  and  _182
REMARK   79  A    between atoms: _182  and  _183
REMARK   80  A    between atoms: _185  and  _187
REMARK   81  A    between atoms: _187  and  _188
REMARK   82  A    between atoms: _187  and  _190
REMARK   83  A    between atoms: _190  and  _191
REMARK   84  A    between atoms: _191  and  _192
REMARK   85  A    between atoms: _192  and  _193
REMARK   86  A    between atoms: _193  and  _194
REMARK   87  A    between atoms: _198  and  _200
REMARK   88  A    between atoms: _200  and  _201
REMARK   89  A    between atoms: _200  and  _203
REMARK   90  A    between atoms: _203  and  _204
REMARK   91  A    between atoms: _204  and  _205
REMARK   92  A    between atoms: _208  and  _210
REMARK   93  A    between atoms: _210  and  _211
REMARK   94  A    between atoms: _210  and  _213
REMARK   95  A    between atoms: _213  and  _214
REMARK   96  A    between atoms: _214  and  _215
REMARK   97  A    between atoms: _218  and  _220
REMARK   98  A    between atoms: _220  and  _221
REMARK   99  A    between atoms: _220  and  _223
REMARK  100  A    between atoms: _223  and  _224
REMARK  101  A    between atoms: _224  and  _225
REMARK  102  A    between atoms: _227  and  _229
REMARK  103  A    between atoms: _229  and  _230
REMARK  104  A    between atoms: _229  and  _232
REMARK  105  A    between atoms: _232  and  _233
REMARK  106  A    between atoms: _233  and  _234
REMARK  107  A    between atoms: _237  and  _239
REMARK  108  A    between atoms: _239  and  _240
REMARK  109  A    between atoms: _239  and  _242
REMARK  110  A    between atoms: _244  and  _246
REMARK  111  A    between atoms: _246  and  _247
REMARK  112  A    between atoms: _246  and  _249
REMARK  113  A    between atoms: _249  and  _250
REMARK  114  A    between atoms: _252  and  _254
REMARK  115  A    between atoms: _254  and  _255
REMARK  116  A    between atoms: _257  and  _259
REMARK  117  A    between atoms: _259  and  _260
REMARK  118  A    between atoms: _259  and  _262
REMARK  119  A    between atoms: _262  and  _263
REMARK  120  A    between atoms: _266  and  _268
REMARK  121  A    between atoms: _268  and  _269
REMARK  122  A    between atoms: _268  and  _271
REMARK  123  A    between atoms: _271  and  _272
REMARK  124  A    between atoms: _277  and  _278
REMARK  125  A    between atoms: _280  and  _282
REMARK  126  A    between atoms: _282  and  _283
REMARK  127  A    between atoms: _282  and  _285
REMARK  128  A    between atoms: _285  and  _286
REMARK  129  A    between atoms: _288  and  _290
REMARK  130  A    between atoms: _290  and  _291
REMARK  131  A    between atoms: _290  and  _293
REMARK  132  A    between atoms: _293  and  _294
REMARK  133  A    between atoms: _297  and  _299
REMARK  134  A    between atoms: _299  and  _300
REMARK  135  A    between atoms: _299  and  _302
REMARK  136  A    between atoms: _302  and  _303
REMARK  137  A    between atoms: _305  and  _307
REMARK  138  A    between atoms: _307  and  _308
REMARK  139  A    between atoms: _307  and  _310
REMARK  140  A    between atoms: _310  and  _311
REMARK  141  A    between atoms: _316  and  _318
REMARK  142  A    between atoms: _318  and  _319
REMARK  143  A    between atoms: _318  and  _321
REMARK  144  A    between atoms: _321  and  _322
REMARK  145  A    between atoms: _325  and  _327
REMARK  146  A    between atoms: _327  and  _328
REMARK  147  A    between atoms: _327  and  _330
REMARK  148  A    between atoms: _330  and  _331
REMARK  149  A    between atoms: _331  and  _332
REMARK  150  A    between atoms: _335  and  _337
REMARK  151  A    between atoms: _337  and  _338
REMARK  152  A    between atoms: _337  and  _340
REMARK  153  A    between atoms: _340  and  _341
REMARK  154  A    between atoms: _341  and  _342
REMARK  155  A    between atoms: _342  and  _343
REMARK  156  A    between atoms: _352  and  _354
REMARK  157  A    between atoms: _354  and  _355
REMARK  158  A    between atoms: _354  and  _357
REMARK  159  A    between atoms: _357  and  _358
REMARK  160  A    between atoms: _361  and  _363
REMARK  161  A    between atoms: _363  and  _364
REMARK  162  A    between atoms: _363  and  _366
REMARK  163  A    between atoms: _366  and  _367
REMARK  164  A    between atoms: _372  and  _374
REMARK  165  A    between atoms: _374  and  _375
REMARK  166  A    between atoms: _374  and  _377
REMARK  167  A    between atoms: _377  and  _378
REMARK  168  A    between atoms: _378  and  _379
REMARK  169  A    between atoms: _379  and  _380
REMARK  170  A    between atoms: _380  and  _381
REMARK  171  A    between atoms: _385  and  _387
REMARK  172  A    between atoms: _387  and  _388
REMARK  173  A    between atoms: _387  and  _390
REMARK  174  A    between atoms: _390  and  _391
REMARK                            x       y       z     vdW  Elec       q    Type
REMARK                         _______ _______ _______ _____ _____    ______ ____
ROOT
ATOM      1  CA  MET A   1     -27.114 -26.306  21.323  0.00  0.00    +0.134 C 
ENDROOT
BRANCH   1   2
ATOM      2  N   MET A   1     -26.194 -27.411  21.429  0.00  0.00    -0.239 NA
ATOM      3  H   MET A   1     -25.415 -27.481  20.744  0.00  0.00    +0.142 HD
ENDBRANCH   1   2
BRANCH   1   4
ATOM      4  C   MET A   1     -28.072 -26.394  20.167  0.00  0.00    +0.224 C 
ATOM      5  O   MET A   1     -27.696 -26.757  19.091  0.00  0.00    -0.287 OA
ENDBRANCH   1   4
BRANCH   1   6
ATOM      6  CB  MET A   1     -26.368 -25.000  21.176  0.00  0.00    +0.037 C 
BRANCH   6   7
ATOM      7  CG  MET A   1     -27.304 -23.849  21.060  0.00  0.00    +0.059 C 
BRANCH   7   8
ATOM      8  SD  MET A   1     -26.508 -22.276  21.113  0.00  0.00    -0.139 S 
ATOM      9  CE  MET A   1     -26.513 -21.794  19.428  0.00  0.00    +0.069 C 
ENDBRANCH   7   8
ENDBRANCH   6   7
ENDBRANCH   1   6
TORSDOF 5
REMARK  Name = ../refined-set-2016/3c2r/3c2r_pocket.pdb
REMARK  174 active torsions:
REMARK  status: ('A' for Active; 'I' for Inactive)
REMARK    1  A    between atoms: _1  and  _3
REMARK    2  A    between atoms: _3  and  _4
REMARK    3  A    between atoms: _7  and  _9
REMARK    4  A    between atoms: _9  and  _10
REMARK    5  A    between atoms: _12  and  _14
REMARK    6  A    between atoms: _14  and  _15
REMARK    7  A    between atoms: _14  and  _17
REMARK    8  A    between atoms: _17  and  _18
REMARK    9  A    between atoms: _21  and  _23
REMARK   10  A    between atoms: _23  and  _24
REMARK   11  A    between atoms: _23  and  _26
REMARK   12  A    between atoms: _26  and  _27
REMARK   13  A    between atoms: _27  and  _28
REMARK   14  A    between atoms: _28  and  _29
REMARK   15  A    between atoms: _38  and  _40
REMARK   16  A    between atoms: _40  and  _41
REMARK   17  A    between atoms: _40  and  _43
REMARK   18  A    between atoms: _43  and  _44
REMARK   19  A    between atoms: _44  and  _45
REMARK   20  A    between atoms: _45  and  _46
REMARK   21  A    between atoms: _46  and  _47
REMARK   22  A    between atoms: _51  and  _53
REMARK   23  A    between atoms: _53  and  _54
REMARK   24  A    between atoms: _53  and  _56
REMARK   25  A    between atoms: _56  and  _57
REMARK   26  A    between atoms: _60  and  _62
REMARK   27  A    between atoms: _62  and  _63
REMARK   28  A    between atoms: _62  and  _65
REMARK   29  A    between atoms: _65  and  _66
REMARK   30  A    between atoms: _66  and  _67
REMARK   31  A    between atoms: _67  and  _68
REMARK   32  A    between atoms: _77  and  _79
REMARK   33  A    between atoms: _79  and  _80
REMARK   34  A    between atoms: _79  and  _82
REMARK   35  A    between atoms: _82  and  _83
REMARK   36  A    between atoms: _83  and  _84
REMARK   37  A    between atoms: _84  and  _85
REMARK   38  A    between atoms: _85  and  _86
REMARK   39  A    between atoms: _90  and  _92
REMARK   40  A    between atoms: _92  and  _93
REMARK   41  A    between atoms: _92  and  _95
REMARK   42  A    between atoms: _95  and  _96
REMARK   43  A    between atoms: _99  and  _101
REMARK   44  A    between atoms: _101  and  _102
REMARK   45  A    between atoms: _101  and  _104
REMARK   46  A    between atoms: _104  and  _105
REMARK   47  A    between atoms: _110  and  _112
REMARK   48  A    between atoms: _112  and  _113
REMARK   49  A    between atoms: _112  and  _115
REMARK   50  A    between atoms: _115  and  _116
REMARK   51  A    between atoms: _116  and  _117
REMARK   52  A    between atoms: _117  and  _118
REMARK   53  A    between atoms: _127  and  _129
REMARK   54  A    between atoms: _129  and  _130
REMARK   55  A    between atoms: _129  and  _132
REMARK   56  A    between atoms: _132  and  _133
REMARK   57  A    between atoms: _138  and  _139
REMARK   58  A    between atoms: _141  and  _143
REMARK   59  A    between atoms: _143  and  _144
REMARK   60  A    between atoms: _143  and  _146
REMARK   61  A    between atoms: _146  and  _147
REMARK   62  A    between atoms: _150  and  _152
REMARK   63  A    between atoms: _152  and  _153
REMARK   64  A    between atoms: _152  and  _155
REMARK   65  A    between atoms: _155  and  _156
REMARK   66  A    between atoms: _159  and  _161
REMARK   67  A    between atoms: _161  and  _162
REMARK   68  A    between atoms: _161  and  _164
REMARK   69  A    between atoms: _164  and  _165
REMARK   70  A    between atoms: _167  and  _169
REMARK   71  A    between atoms: _169  and  _170
REMARK   72  A    between atoms: _169  and  _172
REMARK   73  A    between atoms: _172  and  _173
REMARK   74  A    between atoms: _173  and  _174
REMARK   75  A    between atoms: _176  and  _178
REMARK   76  A    between atoms: _178  and  _179
REMARK   77  A    between atoms: _178  and  _181
REMARK   78  A    between atoms: _181  and  _182
REMARK   79  A    between atoms: _182  and  _183
REMARK   80  A    between atoms: _185  and  _187
REMARK   81  A    between atoms: _187  and  _188
REMARK   82  A    between atoms: _187  and  _190
REMARK   83  A    between atoms: _190  and  _191
REMARK   84  A    between atoms: _191  and  _192
REMARK   85  A    between atoms: _192  and  _193
REMARK   86  A    between atoms: _193  and  _194
REMARK   87  A    between atoms: _198  and  _200
REMARK   88  A    between atoms: _200  and  _201
REMARK   89  A    between atoms: _200  and  _203
REMARK   90  A    between atoms: _203  and  _204
REMARK   91  A    between atoms: _204  and  _205
REMARK   92  A    between atoms: _208  and  _210
REMARK   93  A    between atoms: _210  and  _211
REMARK   94  A    between atoms: _210  and  _213
REMARK   95  A    between atoms: _213  and  _214
REMARK   96  A    between atoms: _214  and  _215
REMARK   97  A    between atoms: _218  and  _220
REMARK   98  A    between atoms: _220  and  _221
REMARK   99  A    between atoms: _220  and  _223
REMARK  100  A    between atoms: _223  and  _224
REMARK  101  A    between atoms: _224  and  _225
REMARK  102  A    between atoms: _227  and  _229
REMARK  103  A    between atoms: _229  and  _230
REMARK  104  A    between atoms: _229  and  _232
REMARK  105  A    between atoms: _232  and  _233
REMARK  106  A    between atoms: _233  and  _234
REMARK  107  A    between atoms: _237  and  _239
REMARK  108  A    between atoms: _239  and  _240
REMARK  109  A    between atoms: _239  and  _242
REMARK  110  A    between atoms: _244  and  _246
REMARK  111  A    between atoms: _246  and  _247
REMARK  112  A    between atoms: _246  and  _249
REMARK  113  A    between atoms: _249  and  _250
REMARK  114  A    between atoms: _252  and  _254
REMARK  115  A    between atoms: _254  and  _255
REMARK  116  A    between atoms: _257  and  _259
REMARK  117  A    between atoms: _259  and  _260
REMARK  118  A    between atoms: _259  and  _262
REMARK  119  A    between atoms: _262  and  _263
REMARK  120  A    between atoms: _266  and  _268
REMARK  121  A    between atoms: _268  and  _269
REMARK  122  A    between atoms: _268  and  _271
REMARK  123  A    between atoms: _271  and  _272
REMARK  124  A    between atoms: _277  and  _278
REMARK  125  A    between atoms: _280  and  _282
REMARK  126  A    between atoms: _282  and  _283
REMARK  127  A    between atoms: _282  and  _285
REMARK  128  A    between atoms: _285  and  _286
REMARK  129  A    between atoms: _288  and  _290
REMARK  130  A    between atoms: _290  and  _291
REMARK  131  A    between atoms: _290  and  _293
REMARK  132  A    between atoms: _293  and  _294
REMARK  133  A    between atoms: _297  and  _299
REMARK  134  A    between atoms: _299  and  _300
REMARK  135  A    between atoms: _299  and  _302
REMARK  136  A    between atoms: _302  and  _303
REMARK  137  A    between atoms: _305  and  _307
REMARK  138  A    between atoms: _307  and  _308
REMARK  139  A    between atoms: _307  and  _310
REMARK  140  A    between atoms: _310  and  _311
REMARK  141  A    between atoms: _316  and  _318
REMARK  142  A    between atoms: _318  and  _319
REMARK  143  A    between atoms: _318  and  _321
REMARK  144  A    between atoms: _321  and  _322
REMARK  145  A    between atoms: _325  and  _327
REMARK  146  A    between atoms: _327  and  _328
REMARK  147  A    between atoms: _327  and  _330
REMARK  148  A    between atoms: _330  and  _331
REMARK  149  A    between atoms: _331  and  _332
REMARK  150  A    between atoms: _335  and  _337
REMARK  151  A    between atoms: _337  and  _338
REMARK  152  A    between atoms: _337  and  _340
REMARK  153  A    between atoms: _340  and  _341
REMARK  154  A    between atoms: _341  and  _342
REMARK  155  A    between atoms: _342  and  _343
REMARK  156  A    between atoms: _352  and  _354
REMARK  157  A    between atoms: _354  and  _355
REMARK  158  A    between atoms: _354  and  _357
REMARK  159  A    between atoms: _357  and  _358
REMARK  160  A    between atoms: _361  and  _363
REMARK  161  A    between atoms: _363  and  _364
REMARK  162  A    between atoms: _363  and  _366
REMARK  163  A    between atoms: _366  and  _367
REMARK  164  A    between atoms: _372  and  _374
REMARK  165  A    between atoms: _374  and  _375
REMARK  166  A    between atoms: _374  and  _377
REMARK  167  A    between atoms: _377  and  _378
REMARK  168  A    between atoms: _378  and  _379
REMARK  169  A    between atoms: _379  and  _380
REMARK  170  A    between atoms: _380  and  _381
REMARK  171  A    between atoms: _385  and  _387
REMARK  172  A    between atoms: _387  and  _388
REMARK  173  A    between atoms: _387  and  _390
REMARK  174  A    between atoms: _390  and  _391
REMARK                            x       y       z     vdW  Elec       q    Type
REMARK                         _______ _______ _______ _____ _____    ______ ____
ROOT
ATOM      1  CA  CYS A   2     -31.452 -23.585  23.955  0.00  0.00    +0.160 C 
ENDROOT
BRANCH   1   3
ATOM      2  C   GLU A   1     -29.769 -25.268  24.480  0.00  0.00    +0.238 C 
ATOM      3  N   CYS A   2     -30.580 -24.299  24.874  0.00  0.00    -0.297 N 
ATOM      4  H   CYS A   2     -30.594 -24.038  25.881  0.00  0.00    +0.150 HD
ATOM      5  O   GLU A   1     -29.707 -25.660  23.326  0.00  0.00    -0.274 OA
BRANCH   2   6
ATOM      6  CA  GLU A   1     -28.889 -25.861  25.566  0.00  0.00    +0.145 C 
BRANCH   6   7
ATOM      7  N   GLU A   1     -28.512 -27.261  25.389  0.00  0.00    -0.238 NA
ATOM      8  H   GLU A   1     -28.140 -27.576  24.470  0.00  0.00    +0.142 HD
ENDBRANCH   6   7
BRANCH   6   9
ATOM      9  CB  GLU A   1     -27.635 -24.984  25.681  0.00  0.00    +0.038 C 
BRANCH   9  10
ATOM     10  CG  GLU A   1     -27.925 -23.499  25.955  0.00  0.00    +0.116 C 
BRANCH  10  11
ATOM     11  CD  GLU A   1     -26.746 -22.584  25.634  0.00  0.00    +0.365 C 
ATOM     12  OE2 GLU A   1     -25.594 -23.057  25.672  0.00  0.00    -0.246 OA
ATOM     13  OE1 GLU A   1     -26.971 -21.385  25.356  0.00  0.00    -0.246 OA
ENDBRANCH  10  11
ENDBRANCH   9  10
ENDBRANCH   6   9
ENDBRANCH   2   6
ENDBRANCH   1   3
BRANCH   1  14
ATOM     14  C   CYS A   2     -31.039 -22.120  24.072  0.00  0.00    +0.242 C 
ATOM     15  O   CYS A   2     -31.019 -21.565  25.172  0.00  0.00    -0.273 OA
ATOM     16  N   SER A   3     -30.763 -21.487  22.958  0.00  0.00    -0.295 N 
ATOM     17  H   SER A   3     -30.865 -21.971  22.043  0.00  0.00    +0.150 HD
BRANCH  16  18
ATOM     18  CA  SER A   3     -30.318 -20.121  23.007  0.00  0.00    +0.178 C 
BRANCH  18  19
ATOM     19  C   SER A   3     -31.290 -19.197  22.328  0.00  0.00    +0.243 C 
ATOM     20  N   GLY A   4     -31.577 -18.047  22.916  0.00  0.00    -0.296 N 
ATOM     21  H   GLY A   4     -31.202 -17.826  23.861  0.00  0.00    +0.150 HD
ATOM     22  O   SER A   3     -31.774 -19.506  21.265  0.00  0.00    -0.273 OA
BRANCH  20  23
ATOM     23  CA  GLY A   4     -32.421 -17.106  22.219  0.00  0.00    +0.163 C 
BRANCH  23  24
ATOM     24  C   GLY A   4     -33.146 -16.027  22.982  0.00  0.00    +0.229 C 
ATOM     25  O   GLY A   4     -32.558 -15.230  23.696  0.00  0.00    -0.286 OA
ENDBRANCH  23  24
ENDBRANCH  20  23
ENDBRANCH  18  19
BRANCH  18  26
ATOM     26  CB  SER A   3     -28.956 -20.012  22.337  0.00  0.00    +0.166 C 
BRANCH  26  27
ATOM     27  OG  SER A   3     -28.453 -18.713  22.441  0.00  0.00    -0.380 OA
ATOM     28  H   SER A   3     -28.359 -18.472  23.397  0.00  0.00    +0.211 HD
ENDBRANCH  26  27
ENDBRANCH  18  26
ENDBRANCH  16  18
ENDBRANCH   1  14
BRANCH   1  29
ATOM     29  CB  CYS A   2     -32.913 -23.758  24.368  0.00  0.00    +0.098 C 
ATOM     30  SG  CYS A   2     -34.076 -22.780  23.399  0.00  0.00    -0.080 S 
ENDBRANCH   1  29
TORSDOF 14
REMARK  Name = ../refined-set-2016/3c2r/3c2r_pocket.pdb
REMARK  174 active torsions:
REMARK  status: ('A' for Active; 'I' for Inactive)
REMARK    1  A    between atoms: _1  and  _3
REMARK    2  A    between atoms: _3  and  _4
REMARK    3  A    between atoms: _7  and  _9
REMARK    4  A    between atoms: _9  and  _10
REMARK    5  A    between atoms: _12  and  _14
REMARK    6  A    between atoms: _14  and  _15
REMARK    7  A    between atoms: _14  and  _17
REMARK    8  A    between atoms: _17  and  _18
REMARK    9  A    between atoms: _21  and  _23
REMARK   10  A    between atoms: _23  and  _24
REMARK   11  A    between atoms: _23  and  _26
REMARK   12  A    between atoms: _26  and  _27
REMARK   13  A    between atoms: _27  and  _28
REMARK   14  A    between atoms: _28  and  _29
REMARK   15  A    between atoms: _38  and  _40
REMARK   16  A    between atoms: _40  and  _41
REMARK   17  A    between atoms: _40  and  _43
REMARK   18  A    between atoms: _43  and  _44
REMARK   19  A    between atoms: _44  and  _45
REMARK   20  A    between atoms: _45  and  _46
REMARK   21  A    between atoms: _46  and  _47
REMARK   22  A    between atoms: _51  and  _53
REMARK   23  A    between atoms: _53  and  _54
REMARK   24  A    between atoms: _53  and  _56
REMARK   25  A    between atoms: _56  and  _57
REMARK   26  A    between atoms: _60  and  _62
REMARK   27  A    between atoms: _62  and  _63
REMARK   28  A    between atoms: _62  and  _65
REMARK   29  A    between atoms: _65  and  _66
REMARK   30  A    between atoms: _66  and  _67
REMARK   31  A    between atoms: _67  and  _68
REMARK   32  A    between atoms: _77  and  _79
REMARK   33  A    between atoms: _79  and  _80
REMARK   34  A    between atoms: _79  and  _82
REMARK   35  A    between atoms: _82  and  _83
REMARK   36  A    between atoms: _83  and  _84
REMARK   37  A    between atoms: _84  and  _85
REMARK   38  A    between atoms: _85  and  _86
REMARK   39  A    between atoms: _90  and  _92
REMARK   40  A    between atoms: _92  and  _93
REMARK   41  A    between atoms: _92  and  _95
REMARK   42  A    between atoms: _95  and  _96
REMARK   43  A    between atoms: _99  and  _101
REMARK   44  A    between atoms: _101  and  _102
REMARK   45  A    between atoms: _101  and  _104
REMARK   46  A    between atoms: _104  and  _105
REMARK   47  A    between atoms: _110  and  _112
REMARK   48  A    between atoms: _112  and  _113
REMARK   49  A    between atoms: _112  and  _115
REMARK   50  A    between atoms: _115  and  _116
REMARK   51  A    between atoms: _116  and  _117
REMARK   52  A    between atoms: _117  and  _118
REMARK   53  A    between atoms: _127  and  _129
REMARK   54  A    between atoms: _129  and  _130
REMARK   55  A    between atoms: _129  and  _132
REMARK   56  A    between atoms: _132  and  _133
REMARK   57  A    between atoms: _138  and  _139
REMARK   58  A    between atoms: _141  and  _143
REMARK   59  A    between atoms: _143  and  _144
REMARK   60  A    between atoms: _143  and  _146
REMARK   61  A    between atoms: _146  and  _147
REMARK   62  A    between atoms: _150  and  _152
REMARK   63  A    between atoms: _152  and  _153
REMARK   64  A    between atoms: _152  and  _155
REMARK   65  A    between atoms: _155  and  _156
REMARK   66  A    between atoms: _159  and  _161
REMARK   67  A    between atoms: _161  and  _162
REMARK   68  A    between atoms: _161  and  _164
REMARK   69  A    between atoms: _164  and  _165
REMARK   70  A    between atoms: _167  and  _169
REMARK   71  A    between atoms: _169  and  _170
REMARK   72  A    between atoms: _169  and  _172
REMARK   73  A    between atoms: _172  and  _173
REMARK   74  A    between atoms: _173  and  _174
REMARK   75  A    between atoms: _176  and  _178
REMARK   76  A    between atoms: _178  and  _179
REMARK   77  A    between atoms: _178  and  _181
REMARK   78  A    between atoms: _181  and  _182
REMARK   79  A    between atoms: _182  and  _183
REMARK   80  A    between atoms: _185  and  _187
REMARK   81  A    between atoms: _187  and  _188
REMARK   82  A    between atoms: _187  and  _190
REMARK   83  A    between atoms: _190  and  _191
REMARK   84  A    between atoms: _191  and  _192
REMARK   85  A    between atoms: _192  and  _193
REMARK   86  A    between atoms: _193  and  _194
REMARK   87  A    between atoms: _198  and  _200
REMARK   88  A    between atoms: _200  and  _201
REMARK   89  A    between atoms: _200  and  _203
REMARK   90  A    between atoms: _203  and  _204
REMARK   91  A    between atoms: _204  and  _205
REMARK   92  A    between atoms: _208  and  _210
REMARK   93  A    between atoms: _210  and  _211
REMARK   94  A    between atoms: _210  and  _213
REMARK   95  A    between atoms: _213  and  _214
REMARK   96  A    between atoms: _214  and  _215
REMARK   97  A    between atoms: _218  and  _220
REMARK   98  A    between atoms: _220  and  _221
REMARK   99  A    between atoms: _220  and  _223
REMARK  100  A    between atoms: _223  and  _224
REMARK  101  A    between atoms: _224  and  _225
REMARK  102  A    between atoms: _227  and  _229
REMARK  103  A    between atoms: _229  and  _230
REMARK  104  A    between atoms: _229  and  _232
REMARK  105  A    between atoms: _232  and  _233
REMARK  106  A    between atoms: _233  and  _234
REMARK  107  A    between atoms: _237  and  _239
REMARK  108  A    between atoms: _239  and  _240
REMARK  109  A    between atoms: _239  and  _242
REMARK  110  A    between atoms: _244  and  _246
REMARK  111  A    between atoms: _246  and  _247
REMARK  112  A    between atoms: _246  and  _249
REMARK  113  A    between atoms: _249  and  _250
REMARK  114  A    between atoms: _252  and  _254
REMARK  115  A    between atoms: _254  and  _255
REMARK  116  A    between atoms: _257  and  _259
REMARK  117  A    between atoms: _259  and  _260
REMARK  118  A    between atoms: _259  and  _262
REMARK  119  A    between atoms: _262  and  _263
REMARK  120  A    between atoms: _266  and  _268
REMARK  121  A    between atoms: _268  and  _269
REMARK  122  A    between atoms: _268  and  _271
REMARK  123  A    between atoms: _271  and  _272
REMARK  124  A    between atoms: _277  and  _278
REMARK  125  A    between atoms: _280  and  _282
REMARK  126  A    between atoms: _282  and  _283
REMARK  127  A    between atoms: _282  and  _285
REMARK  128  A    between atoms: _285  and  _286
REMARK  129  A    between atoms: _288  and  _290
REMARK  130  A    between atoms: _290  and  _291
REMARK  131  A    between atoms: _290  and  _293
REMARK  132  A    between atoms: _293  and  _294
REMARK  133  A    between atoms: _297  and  _299
REMARK  134  A    between atoms: _299  and  _300
REMARK  135  A    between atoms: _299  and  _302
REMARK  136  A    between atoms: _302  and  _303
REMARK  137  A    between atoms: _305  and  _307
REMARK  138  A    between atoms: _307  and  _308
REMARK  139  A    between atoms: _307  and  _310
REMARK  140  A    between atoms: _310  and  _311
REMARK  141  A    between atoms: _316  and  _318
REMARK  142  A    between atoms: _318  and  _319
REMARK  143  A    between atoms: _318  and  _321
REMARK  144  A    between atoms: _321  and  _322
REMARK  145  A    between atoms: _325  and  _327
REMARK  146  A    between atoms: _327  and  _328
REMARK  147  A    between atoms: _327  and  _330
REMARK  148  A    between atoms: _330  and  _331
REMARK  149  A    between atoms: _331  and  _332
REMARK  150  A    between atoms: _335  and  _337
REMARK  151  A    between atoms: _337  and  _338
REMARK  152  A    between atoms: _337  and  _340
REMARK  153  A    between atoms: _340  and  _341
REMARK  154  A    between atoms: _341  and  _342
REMARK  155  A    between atoms: _342  and  _343
REMARK  156  A    between atoms: _352  and  _354
REMARK  157  A    between atoms: _354  and  _355
REMARK  158  A    between atoms: _354  and  _357
REMARK  159  A    between atoms: _357  and  _358
REMARK  160  A    between atoms: _361  and  _363
REMARK  161  A    between atoms: _363  and  _364
REMARK  162  A    between atoms: _363  and  _366
REMARK  163  A    between atoms: _366  and  _367
REMARK  164  A    between atoms: _372  and  _374
REMARK  165  A    between atoms: _374  and  _375
REMARK  166  A    between atoms: _374  and  _377
REMARK  167  A    between atoms: _377  and  _378
REMARK  168  A    between atoms: _378  and  _379
REMARK  169  A    between atoms: _379  and  _380
REMARK  170  A    between atoms: _380  and  _381
REMARK  171  A    between atoms: _385  and  _387
REMARK  172  A    between atoms: _387  and  _388
REMARK  173  A    between atoms: _387  and  _390
REMARK  174  A    between atoms: _390  and  _391
REMARK                            x       y       z     vdW  Elec       q    Type
REMARK                         _______ _______ _______ _____ _____    ______ ____
ROOT
ATOM      1  C   TYR A   2     -30.600 -20.359  28.695  0.00  0.00    +0.241 C 
ATOM      2  O   TYR A   2     -30.495 -19.877  29.824  0.00  0.00    -0.273 OA
ATOM      3  N   SER A   3     -30.022 -19.824  27.623  0.00  0.00    -0.295 N 
ATOM      4  H   SER A   3     -30.141 -20.287  26.699  0.00  0.00    +0.150 HD
ENDROOT
BRANCH   3   5
ATOM      5  CA  SER A   3     -29.225 -18.603  27.709  0.00  0.00    +0.178 C 
BRANCH   5   6
ATOM      6  C   SER A   3     -29.962 -17.400  27.140  0.00  0.00    +0.243 C 
ATOM      7  N   THR A   4     -29.646 -16.228  27.669  0.00  0.00    -0.295 N 
ATOM      8  H   THR A   4     -28.928 -16.188  28.420  0.00  0.00    +0.150 HD
ATOM      9  O   SER A   3     -30.798 -17.528  26.249  0.00  0.00    -0.273 OA
BRANCH   7  10
ATOM     10  CA  THR A   4     -30.277 -14.998  27.227  0.00  0.00    +0.176 C 
BRANCH  10  11
ATOM     11  C   THR A   4     -29.445 -13.823  27.714  0.00  0.00    +0.243 C 
ATOM     12  O   THR A   4     -28.942 -13.836  28.841  0.00  0.00    -0.273 OA
ATOM     13  N   SER A   5     -29.297 -12.815  26.860  0.00  0.00    -0.296 N 
ATOM     14  H   SER A   5     -29.733 -12.877  25.918  0.00  0.00    +0.150 HD
BRANCH  13  15
ATOM     15  CA  SER A   5     -28.536 -11.625  27.217  0.00  0.00    +0.166 C 
BRANCH  15  16
ATOM     16  CB  SER A   5     -29.421 -10.700  28.066  0.00  0.00    +0.229 C 
ATOM     17  OG  SER A   5     -28.989  -9.630  28.502  0.00  0.00    -0.286 OA
ENDBRANCH  15  16
BRANCH  15  18
ATOM     18  C   SER A   5     -28.080 -10.887  25.955  0.00  0.00    +0.165 C 
BRANCH  18  19
ATOM     19  O   SER A   5     -29.182 -10.302  25.277  0.00  0.00    -0.380 OA
ATOM     20  H   SER A   5     -29.632  -9.655  25.877  0.00  0.00    +0.211 HD
ENDBRANCH  18  19
ENDBRANCH  15  18
ENDBRANCH  13  15
ENDBRANCH  10  11
BRANCH  10  21
ATOM     21  CB  THR A   4     -31.730 -14.871  27.796  0.00  0.00    +0.137 C 
ATOM     22  CG2 THR A   4     -31.741 -15.068  29.306  0.00  0.00    +0.034 C 
BRANCH  21  23
ATOM     23  OG1 THR A   4     -32.264 -13.576  27.487  0.00  0.00    -0.382 OA
ATOM     24  HG1 THR A   4     -33.182 -13.504  27.850  0.00  0.00    +0.210 HD
ENDBRANCH  21  23
ENDBRANCH  10  21
ENDBRANCH   7  10
ENDBRANCH   5   6
BRANCH   5  25
ATOM     25  CB  SER A   3     -27.884 -18.782  26.980  0.00  0.00    +0.166 C 
BRANCH  25  26
ATOM     26  OG  SER A   3     -28.071 -19.136  25.619  0.00  0.00    -0.380 OA
ATOM     27  H   SER A   3     -28.571 -19.989  25.567  0.00  0.00    +0.211 HD
ENDBRANCH  25  26
ENDBRANCH   5  25
ENDBRANCH   3   5
BRANCH   1  28
ATOM     28  CA  TYR A   2     -31.397 -21.641  28.475  0.00  0.00    +0.153 C 
BRANCH  28  30
ATOM     29  C   ILE A   1     -30.391 -23.843  28.850  0.00  0.00    +0.238 C 
ATOM     30  N   TYR A   2     -30.727 -22.640  29.299  0.00  0.00    -0.297 N 
ATOM     31  H   TYR A   2     -30.502 -22.399  30.285  0.00  0.00    +0.150 HD
ATOM     32  O   ILE A   1     -30.656 -24.246  27.722  0.00  0.00    -0.274 OA
BRANCH  29  33
ATOM     33  CA  ILE A   1     -29.629 -24.715  29.828  0.00  0.00    +0.145 C 
BRANCH  33  34
ATOM     34  N   ILE A   1     -29.918 -26.141  29.720  0.00  0.00    -0.238 NA
ATOM     35  H   ILE A   1     -30.083 -26.561  28.783  0.00  0.00    +0.142 HD
ENDBRANCH  33  34
BRANCH  33  36
ATOM     36  CB  ILE A   1     -28.136 -24.436  29.570  0.00  0.00    +0.025 C 
ATOM     37  CG2 ILE A   1     -27.802 -23.001  29.943  0.00  0.00    +0.002 C 
BRANCH  36  38
ATOM     38  CG1 ILE A   1     -27.271 -25.404  30.370  0.00  0.00    +0.002 C 
ATOM     39  CD1 ILE A   1     -26.111 -25.953  29.580  0.00  0.00    +0.000 C 
ENDBRANCH  36  38
ENDBRANCH  33  36
ENDBRANCH  29  33
ENDBRANCH  28  30
BRANCH  28  40
ATOM     40  CB  TYR A   2     -32.849 -21.431  28.907  0.00  0.00    +0.055 C 
BRANCH  40  41
ATOM     41  CG  TYR A   2     -33.825 -22.409  28.290  0.00  0.00    -0.020 A 
ATOM     42  CD2 TYR A   2     -33.806 -23.761  28.637  0.00  0.00    -0.001 A 
ATOM     43  CE2 TYR A   2     -34.688 -24.670  28.052  0.00  0.00    +0.036 A 
ATOM     44  CZ  TYR A   2     -35.603 -24.227  27.105  0.00  0.00    +0.134 A 
ATOM     45  CE1 TYR A   2     -35.643 -22.887  26.745  0.00  0.00    +0.036 A 
ATOM     46  CD1 TYR A   2     -34.756 -21.987  27.338  0.00  0.00    -0.001 A 
BRANCH  44  47
ATOM     47  OH  TYR A   2     -36.465 -25.124  26.511  0.00  0.00    -0.506 OA
ATOM     48  HH  TYR A   2     -36.304 -26.028  26.880  0.00  0.00    +0.292 HD
ENDBRANCH  44  47
ENDBRANCH  40  41
ENDBRANCH  28  40
ENDBRANCH   1  28
TORSDOF 21
REMARK  Name = ../refined-set-2016/3c2r/3c2r_pocket.pdb
REMARK  174 active torsions:
REMARK  status: ('A' for Active; 'I' for Inactive)
REMARK    1  A    between atoms: _1  and  _3
REMARK    2  A    between atoms: _3  and  _4
REMARK    3  A    between atoms: _7  and  _9
REMARK    4  A    between atoms: _9  and  _10
REMARK    5  A    between atoms: _12  and  _14
REMARK    6  A    between atoms: _14  and  _15
REMARK    7  A    between atoms: _14  and  _17
REMARK    8  A    between atoms: _17  and  _18
REMARK    9  A    between atoms: _21  and  _23
REMARK   10  A    between atoms: _23  and  _24
REMARK   11  A    between atoms: _23  and  _26
REMARK   12  A    between atoms: _26  and  _27
REMARK   13  A    between atoms: _27  and  _28
REMARK   14  A    between atoms: _28  and  _29
REMARK   15  A    between atoms: _38  and  _40
REMARK   16  A    between atoms: _40  and  _41
REMARK   17  A    between atoms: _40  and  _43
REMARK   18  A    between atoms: _43  and  _44
REMARK   19  A    between atoms: _44  and  _45
REMARK   20  A    between atoms: _45  and  _46
REMARK   21  A    between atoms: _46  and  _47
REMARK   22  A    between atoms: _51  and  _53
REMARK   23  A    between atoms: _53  and  _54
REMARK   24  A    between atoms: _53  and  _56
REMARK   25  A    between atoms: _56  and  _57
REMARK   26  A    between atoms: _60  and  _62
REMARK   27  A    between atoms: _62  and  _63
REMARK   28  A    between atoms: _62  and  _65
REMARK   29  A    between atoms: _65  and  _66
REMARK   30  A    between atoms: _66  and  _67
REMARK   31  A    between atoms: _67  and  _68
REMARK   32  A    between atoms: _77  and  _79
REMARK   33  A    between atoms: _79  and  _80
REMARK   34  A    between atoms: _79  and  _82
REMARK   35  A    between atoms: _82  and  _83
REMARK   36  A    between atoms: _83  and  _84
REMARK   37  A    between atoms: _84  and  _85
REMARK   38  A    between atoms: _85  and  _86
REMARK   39  A    between atoms: _90  and  _92
REMARK   40  A    between atoms: _92  and  _93
REMARK   41  A    between atoms: _92  and  _95
REMARK   42  A    between atoms: _95  and  _96
REMARK   43  A    between atoms: _99  and  _101
REMARK   44  A    between atoms: _101  and  _102
REMARK   45  A    between atoms: _101  and  _104
REMARK   46  A    between atoms: _104  and  _105
REMARK   47  A    between atoms: _110  and  _112
REMARK   48  A    between atoms: _112  and  _113
REMARK   49  A    between atoms: _112  and  _115
REMARK   50  A    between atoms: _115  and  _116
REMARK   51  A    between atoms: _116  and  _117
REMARK   52  A    between atoms: _117  and  _118
REMARK   53  A    between atoms: _127  and  _129
REMARK   54  A    between atoms: _129  and  _130
REMARK   55  A    between atoms: _129  and  _132
REMARK   56  A    between atoms: _132  and  _133
REMARK   57  A    between atoms: _138  and  _139
REMARK   58  A    between atoms: _141  and  _143
REMARK   59  A    between atoms: _143  and  _144
REMARK   60  A    between atoms: _143  and  _146
REMARK   61  A    between atoms: _146  and  _147
REMARK   62  A    between atoms: _150  and  _152
REMARK   63  A    between atoms: _152  and  _153
REMARK   64  A    between atoms: _152  and  _155
REMARK   65  A    between atoms: _155  and  _156
REMARK   66  A    between atoms: _159  and  _161
REMARK   67  A    between atoms: _161  and  _162
REMARK   68  A    between atoms: _161  and  _164
REMARK   69  A    between atoms: _164  and  _165
REMARK   70  A    between atoms: _167  and  _169
REMARK   71  A    between atoms: _169  and  _170
REMARK   72  A    between atoms: _169  and  _172
REMARK   73  A    between atoms: _172  and  _173
REMARK   74  A    between atoms: _173  and  _174
REMARK   75  A    between atoms: _176  and  _178
REMARK   76  A    between atoms: _178  and  _179
REMARK   77  A    between atoms: _178  and  _181
REMARK   78  A    between atoms: _181  and  _182
REMARK   79  A    between atoms: _182  and  _183
REMARK   80  A    between atoms: _185  and  _187
REMARK   81  A    between atoms: _187  and  _188
REMARK   82  A    between atoms: _187  and  _190
REMARK   83  A    between atoms: _190  and  _191
REMARK   84  A    between atoms: _191  and  _192
REMARK   85  A    between atoms: _192  and  _193
REMARK   86  A    between atoms: _193  and  _194
REMARK   87  A    between atoms: _198  and  _200
REMARK   88  A    between atoms: _200  and  _201
REMARK   89  A    between atoms: _200  and  _203
REMARK   90  A    between atoms: _203  and  _204
REMARK   91  A    between atoms: _204  and  _205
REMARK   92  A    between atoms: _208  and  _210
REMARK   93  A    between atoms: _210  and  _211
REMARK   94  A    between atoms: _210  and  _213
REMARK   95  A    between atoms: _213  and  _214
REMARK   96  A    between atoms: _214  and  _215
REMARK   97  A    between atoms: _218  and  _220
REMARK   98  A    between atoms: _220  and  _221
REMARK   99  A    between atoms: _220  and  _223
REMARK  100  A    between atoms: _223  and  _224
REMARK  101  A    between atoms: _224  and  _225
REMARK  102  A    between atoms: _227  and  _229
REMARK  103  A    between atoms: _229  and  _230
REMARK  104  A    between atoms: _229  and  _232
REMARK  105  A    between atoms: _232  and  _233
REMARK  106  A    between atoms: _233  and  _234
REMARK  107  A    between atoms: _237  and  _239
REMARK  108  A    between atoms: _239  and  _240
REMARK  109  A    between atoms: _239  and  _242
REMARK  110  A    between atoms: _244  and  _246
REMARK  111  A    between atoms: _246  and  _247
REMARK  112  A    between atoms: _246  and  _249
REMARK  113  A    between atoms: _249  and  _250
REMARK  114  A    between atoms: _252  and  _254
REMARK  115  A    between atoms: _254  and  _255
REMARK  116  A    between atoms: _257  and  _259
REMARK  117  A    between atoms: _259  and  _260
REMARK  118  A    between atoms: _259  and  _262
REMARK  119  A    between atoms: _262  and  _263
REMARK  120  A    between atoms: _266  and  _268
REMARK  121  A    between atoms: _268  and  _269
REMARK  122  A    between atoms: _268  and  _271
REMARK  123  A    between atoms: _271  and  _272
REMARK  124  A    between atoms: _277  and  _278
REMARK  125  A    between atoms: _280  and  _282
REMARK  126  A    between atoms: _282  and  _283
REMARK  127  A    between atoms: _282  and  _285
REMARK  128  A    between atoms: _285  and  _286
REMARK  129  A    between atoms: _288  and  _290
REMARK  130  A    between atoms: _290  and  _291
REMARK  131  A    between atoms: _290  and  _293
REMARK  132  A    between atoms: _293  and  _294
REMARK  133  A    between atoms: _297  and  _299
REMARK  134  A    between atoms: _299  and  _300
REMARK  135  A    between atoms: _299  and  _302
REMARK  136  A    between atoms: _302  and  _303
REMARK  137  A    between atoms: _305  and  _307
REMARK  138  A    between atoms: _307  and  _308
REMARK  139  A    between atoms: _307  and  _310
REMARK  140  A    between atoms: _310  and  _311
REMARK  141  A    between atoms: _316  and  _318
REMARK  142  A    between atoms: _318  and  _319
REMARK  143  A    between atoms: _318  and  _321
REMARK  144  A    between atoms: _321  and  _322
REMARK  145  A    between atoms: _325  and  _327
REMARK  146  A    between atoms: _327  and  _328
REMARK  147  A    between atoms: _327  and  _330
REMARK  148  A    between atoms: _330  and  _331
REMARK  149  A    between atoms: _331  and  _332
REMARK  150  A    between atoms: _335  and  _337
REMARK  151  A    between atoms: _337  and  _338
REMARK  152  A    between atoms: _337  and  _340
REMARK  153  A    between atoms: _340  and  _341
REMARK  154  A    between atoms: _341  and  _342
REMARK  155  A    between atoms: _342  and  _343
REMARK  156  A    between atoms: _352  and  _354
REMARK  157  A    between atoms: _354  and  _355
REMARK  158  A    between atoms: _354  and  _357
REMARK  159  A    between atoms: _357  and  _358
REMARK  160  A    between atoms: _361  and  _363
REMARK  161  A    between atoms: _363  and  _364
REMARK  162  A    between atoms: _363  and  _366
REMARK  163  A    between atoms: _366  and  _367
REMARK  164  A    between atoms: _372  and  _374
REMARK  165  A    between atoms: _374  and  _375
REMARK  166  A    between atoms: _374  and  _377
REMARK  167  A    between atoms: _377  and  _378
REMARK  168  A    between atoms: _378  and  _379
REMARK  169  A    between atoms: _379  and  _380
REMARK  170  A    between atoms: _380  and  _381
REMARK  171  A    between atoms: _385  and  _387
REMARK  172  A    between atoms: _387  and  _388
REMARK  173  A    between atoms: _387  and  _390
REMARK  174  A    between atoms: _390  and  _391
REMARK                            x       y       z     vdW  Elec       q    Type
REMARK                         _______ _______ _______ _____ _____    ______ ____
ROOT
ATOM      1  CB  HIS A   1     -25.818  -9.403  31.774  0.00  0.00    +0.072 C 
ENDROOT
BRANCH   1   2
ATOM      2  CG  HIS A   1     -25.493  -9.983  30.425  0.00  0.00    +0.082 A 
ATOM      3  ND1 HIS A   1     -25.780 -11.288  30.083  0.00  0.00    -0.227 NA
ATOM      4  CE1 HIS A   1     -25.348 -11.527  28.856  0.00  0.00    +0.199 A 
ATOM      5  NE2 HIS A   1     -24.794 -10.421  28.388  0.00  0.00    -0.221 NA
ATOM      6  CD2 HIS A   1     -24.873  -9.441  29.348  0.00  0.00    +0.115 A 
ENDBRANCH   1   2
BRANCH   1   7
ATOM      7  CA  HIS A   1     -27.154  -8.645  31.834  0.00  0.00    +0.139 C 
BRANCH   7   8
ATOM      8  N   HIS A   1     -28.271  -9.578  31.670  0.00  0.00    -0.239 NA
ATOM      9  H   HIS A   1     -28.551  -9.887  30.717  0.00  0.00    +0.142 HD
ENDBRANCH   7   8
BRANCH   7  10
ATOM     10  C   HIS A   1     -27.085  -7.451  30.875  0.00  0.00    +0.224 C 
ATOM     11  O   HIS A   1     -26.631  -6.383  31.262  0.00  0.00    -0.287 OA
ENDBRANCH   7  10
ENDBRANCH   1   7
TORSDOF 4
REMARK  Name = ../refined-set-2016/3c2r/3c2r_pocket.pdb
REMARK  174 active torsions:
REMARK  status: ('A' for Active; 'I' for Inactive)
REMARK    1  A    between atoms: _1  and  _3
REMARK    2  A    between atoms: _3  and  _4
REMARK    3  A    between atoms: _7  and  _9
REMARK    4  A    between atoms: _9  and  _10
REMARK    5  A    between atoms: _12  and  _14
REMARK    6  A    between atoms: _14  and  _15
REMARK    7  A    between atoms: _14  and  _17
REMARK    8  A    between atoms: _17  and  _18
REMARK    9  A    between atoms: _21  and  _23
REMARK   10  A    between atoms: _23  and  _24
REMARK   11  A    between atoms: _23  and  _26
REMARK   12  A    between atoms: _26  and  _27
REMARK   13  A    between atoms: _27  and  _28
REMARK   14  A    between atoms: _28  and  _29
REMARK   15  A    between atoms: _38  and  _40
REMARK   16  A    between atoms: _40  and  _41
REMARK   17  A    between atoms: _40  and  _43
REMARK   18  A    between atoms: _43  and  _44
REMARK   19  A    between atoms: _44  and  _45
REMARK   20  A    between atoms: _45  and  _46
REMARK   21  A    between atoms: _46  and  _47
REMARK   22  A    between atoms: _51  and  _53
REMARK   23  A    between atoms: _53  and  _54
REMARK   24  A    between atoms: _53  and  _56
REMARK   25  A    between atoms: _56  and  _57
REMARK   26  A    between atoms: _60  and  _62
REMARK   27  A    between atoms: _62  and  _63
REMARK   28  A    between atoms: _62  and  _65
REMARK   29  A    between atoms: _65  and  _66
REMARK   30  A    between atoms: _66  and  _67
REMARK   31  A    between atoms: _67  and  _68
REMARK   32  A    between atoms: _77  and  _79
REMARK   33  A    between atoms: _79  and  _80
REMARK   34  A    between atoms: _79  and  _82
REMARK   35  A    between atoms: _82  and  _83
REMARK   36  A    between atoms: _83  and  _84
REMARK   37  A    between atoms: _84  and  _85
REMARK   38  A    between atoms: _85  and  _86
REMARK   39  A    between atoms: _90  and  _92
REMARK   40  A    between atoms: _92  and  _93
REMARK   41  A    between atoms: _92  and  _95
REMARK   42  A    between atoms: _95  and  _96
REMARK   43  A    between atoms: _99  and  _101
REMARK   44  A    between atoms: _101  and  _102
REMARK   45  A    between atoms: _101  and  _104
REMARK   46  A    between atoms: _104  and  _105
REMARK   47  A    between atoms: _110  and  _112
REMARK   48  A    between atoms: _112  and  _113
REMARK   49  A    between atoms: _112  and  _115
REMARK   50  A    between atoms: _115  and  _116
REMARK   51  A    between atoms: _116  and  _117
REMARK   52  A    between atoms: _117  and  _118
REMARK   53  A    between atoms: _127  and  _129
REMARK   54  A    between atoms: _129  and  _130
REMARK   55  A    between atoms: _129  and  _132
REMARK   56  A    between atoms: _132  and  _133
REMARK   57  A    between atoms: _138  and  _139
REMARK   58  A    between atoms: _141  and  _143
REMARK   59  A    between atoms: _143  and  _144
REMARK   60  A    between atoms: _143  and  _146
REMARK   61  A    between atoms: _146  and  _147
REMARK   62  A    between atoms: _150  and  _152
REMARK   63  A    between atoms: _152  and  _153
REMARK   64  A    between atoms: _152  and  _155
REMARK   65  A    between atoms: _155  and  _156
REMARK   66  A    between atoms: _159  and  _161
REMARK   67  A    between atoms: _161  and  _162
REMARK   68  A    between atoms: _161  and  _164
REMARK   69  A    between atoms: _164  and  _165
REMARK   70  A    between atoms: _167  and  _169
REMARK   71  A    between atoms: _169  and  _170
REMARK   72  A    between atoms: _169  and  _172
REMARK   73  A    between atoms: _172  and  _173
REMARK   74  A    between atoms: _173  and  _174
REMARK   75  A    between atoms: _176  and  _178
REMARK   76  A    between atoms: _178  and  _179
REMARK   77  A    between atoms: _178  and  _181
REMARK   78  A    between atoms: _181  and  _182
REMARK   79  A    between atoms: _182  and  _183
REMARK   80  A    between atoms: _185  and  _187
REMARK   81  A    between atoms: _187  and  _188
REMARK   82  A    between atoms: _187  and  _190
REMARK   83  A    between atoms: _190  and  _191
REMARK   84  A    between atoms: _191  and  _192
REMARK   85  A    between atoms: _192  and  _193
REMARK   86  A    between atoms: _193  and  _194
REMARK   87  A    between atoms: _198  and  _200
REMARK   88  A    between atoms: _200  and  _201
REMARK   89  A    between atoms: _200  and  _203
REMARK   90  A    between atoms: _203  and  _204
REMARK   91  A    between atoms: _204  and  _205
REMARK   92  A    between atoms: _208  and  _210
REMARK   93  A    between atoms: _210  and  _211
REMARK   94  A    between atoms: _210  and  _213
REMARK   95  A    between atoms: _213  and  _214
REMARK   96  A    between atoms: _214  and  _215
REMARK   97  A    between atoms: _218  and  _220
REMARK   98  A    between atoms: _220  and  _221
REMARK   99  A    between atoms: _220  and  _223
REMARK  100  A    between atoms: _223  and  _224
REMARK  101  A    between atoms: _224  and  _225
REMARK  102  A    between atoms: _227  and  _229
REMARK  103  A    between atoms: _229  and  _230
REMARK  104  A    between atoms: _229  and  _232
REMARK  105  A    between atoms: _232  and  _233
REMARK  106  A    between atoms: _233  and  _234
REMARK  107  A    between atoms: _237  and  _239
REMARK  108  A    between atoms: _239  and  _240
REMARK  109  A    between atoms: _239  and  _242
REMARK  110  A    between atoms: _244  and  _246
REMARK  111  A    between atoms: _246  and  _247
REMARK  112  A    between atoms: _246  and  _249
REMARK  113  A    between atoms: _249  and  _250
REMARK  114  A    between atoms: _252  and  _254
REMARK  115  A    between atoms: _254  and  _255
REMARK  116  A    between atoms: _257  and  _259
REMARK  117  A    between atoms: _259  and  _260
REMARK  118  A    between atoms: _259  and  _262
REMARK  119  A    between atoms: _262  and  _263
REMARK  120  A    between atoms: _266  and  _268
REMARK  121  A    between atoms: _268  and  _269
REMARK  122  A    between atoms: _268  and  _271
REMARK  123  A    between atoms: _271  and  _272
REMARK  124  A    between atoms: _277  and  _278
REMARK  125  A    between atoms: _280  and  _282
REMARK  126  A    between atoms: _282  and  _283
REMARK  127  A    between atoms: _282  and  _285
REMARK  128  A    between atoms: _285  and  _286
REMARK  129  A    between atoms: _288  and  _290
REMARK  130  A    between atoms: _290  and  _291
REMARK  131  A    between atoms: _290  and  _293
REMARK  132  A    between atoms: _293  and  _294
REMARK  133  A    between atoms: _297  and  _299
REMARK  134  A    between atoms: _299  and  _300
REMARK  135  A    between atoms: _299  and  _302
REMARK  136  A    between atoms: _302  and  _303
REMARK  137  A    between atoms: _305  and  _307
REMARK  138  A    between atoms: _307  and  _308
REMARK  139  A    between atoms: _307  and  _310
REMARK  140  A    between atoms: _310  and  _311
REMARK  141  A    between atoms: _316  and  _318
REMARK  142  A    between atoms: _318  and  _319
REMARK  143  A    between atoms: _318  and  _321
REMARK  144  A    between atoms: _321  and  _322
REMARK  145  A    between atoms: _325  and  _327
REMARK  146  A    between atoms: _327  and  _328
REMARK  147  A    between atoms: _327  and  _330
REMARK  148  A    between atoms: _330  and  _331
REMARK  149  A    between atoms: _331  and  _332
REMARK  150  A    between atoms: _335  and  _337
REMARK  151  A    between atoms: _337  and  _338
REMARK  152  A    between atoms: _337  and  _340
REMARK  153  A    between atoms: _340  and  _341
REMARK  154  A    between atoms: _341  and  _342
REMARK  155  A    between atoms: _342  and  _343
REMARK  156  A    between atoms: _352  and  _354
REMARK  157  A    between atoms: _354  and  _355
REMARK  158  A    between atoms: _354  and  _357
REMARK  159  A    between atoms: _357  and  _358
REMARK  160  A    between atoms: _361  and  _363
REMARK  161  A    between atoms: _363  and  _364
REMARK  162  A    between atoms: _363  and  _366
REMARK  163  A    between atoms: _366  and  _367
REMARK  164  A    between atoms: _372  and  _374
REMARK  165  A    between atoms: _374  and  _375
REMARK  166  A    between atoms: _374  and  _377
REMARK  167  A    between atoms: _377  and  _378
REMARK  168  A    between atoms: _378  and  _379
REMARK  169  A    between atoms: _379  and  _380
REMARK  170  A    between atoms: _380  and  _381
REMARK  171  A    between atoms: _385  and  _387
REMARK  172  A    between atoms: _387  and  _388
REMARK  173  A    between atoms: _387  and  _390
REMARK  174  A    between atoms: _390  and  _391
REMARK                            x       y       z     vdW  Elec       q    Type
REMARK                         _______ _______ _______ _____ _____    ______ ____
ROOT
ATOM      1  CA  ASP A   1     -12.379 -11.637  24.780  0.00  0.00    +0.144 C 
ENDROOT
BRANCH   1   2
ATOM      2  N   ASP A   1     -11.644 -10.551  25.384  0.00  0.00    -0.239 NA
ATOM      3  H   ASP A   1     -11.227  -9.820  24.773  0.00  0.00    +0.142 HD
ENDBRANCH   1   2
BRANCH   1   4
ATOM      4  C   ASP A   1     -11.495 -12.821  24.431  0.00  0.00    +0.225 C 
ATOM      5  O   ASP A   1     -11.965 -13.948  24.374  0.00  0.00    -0.287 OA
ENDBRANCH   1   4
BRANCH   1   6
ATOM      6  CB  ASP A   1     -13.095 -11.118  23.540  0.00  0.00    +0.139 C 
BRANCH   6   7
ATOM      7  CG  ASP A   1     -14.250 -11.992  23.137  0.00  0.00    +0.367 C 
ATOM      8  OD2 ASP A   1     -14.841 -12.630  24.038  0.00  0.00    -0.246 OA
ATOM      9  OD1 ASP A   1     -14.579 -12.027  21.928  0.00  0.00    -0.246 OA
ENDBRANCH   6   7
ENDBRANCH   1   6
TORSDOF 4
REMARK  Name = ../refined-set-2016/3c2r/3c2r_pocket.pdb
REMARK  174 active torsions:
REMARK  status: ('A' for Active; 'I' for Inactive)
REMARK    1  A    between atoms: _1  and  _3
REMARK    2  A    between atoms: _3  and  _4
REMARK    3  A    between atoms: _7  and  _9
REMARK    4  A    between atoms: _9  and  _10
REMARK    5  A    between atoms: _12  and  _14
REMARK    6  A    between atoms: _14  and  _15
REMARK    7  A    between atoms: _14  and  _17
REMARK    8  A    between atoms: _17  and  _18
REMARK    9  A    between atoms: _21  and  _23
REMARK   10  A    between atoms: _23  and  _24
REMARK   11  A    between atoms: _23  and  _26
REMARK   12  A    between atoms: _26  and  _27
REMARK   13  A    between atoms: _27  and  _28
REMARK   14  A    between atoms: _28  and  _29
REMARK   15  A    between atoms: _38  and  _40
REMARK   16  A    between atoms: _40  and  _41
REMARK   17  A    between atoms: _40  and  _43
REMARK   18  A    between atoms: _43  and  _44
REMARK   19  A    between atoms: _44  and  _45
REMARK   20  A    between atoms: _45  and  _46
REMARK   21  A    between atoms: _46  and  _47
REMARK   22  A    between atoms: _51  and  _53
REMARK   23  A    between atoms: _53  and  _54
REMARK   24  A    between atoms: _53  and  _56
REMARK   25  A    between atoms: _56  and  _57
REMARK   26  A    between atoms: _60  and  _62
REMARK   27  A    between atoms: _62  and  _63
REMARK   28  A    between atoms: _62  and  _65
REMARK   29  A    between atoms: _65  and  _66
REMARK   30  A    between atoms: _66  and  _67
REMARK   31  A    between atoms: _67  and  _68
REMARK   32  A    between atoms: _77  and  _79
REMARK   33  A    between atoms: _79  and  _80
REMARK   34  A    between atoms: _79  and  _82
REMARK   35  A    between atoms: _82  and  _83
REMARK   36  A    between atoms: _83  and  _84
REMARK   37  A    between atoms: _84  and  _85
REMARK   38  A    between atoms: _85  and  _86
REMARK   39  A    between atoms: _90  and  _92
REMARK   40  A    between atoms: _92  and  _93
REMARK   41  A    between atoms: _92  and  _95
REMARK   42  A    between atoms: _95  and  _96
REMARK   43  A    between atoms: _99  and  _101
REMARK   44  A    between atoms: _101  and  _102
REMARK   45  A    between atoms: _101  and  _104
REMARK   46  A    between atoms: _104  and  _105
REMARK   47  A    between atoms: _110  and  _112
REMARK   48  A    between atoms: _112  and  _113
REMARK   49  A    between atoms: _112  and  _115
REMARK   50  A    between atoms: _115  and  _116
REMARK   51  A    between atoms: _116  and  _117
REMARK   52  A    between atoms: _117  and  _118
REMARK   53  A    between atoms: _127  and  _129
REMARK   54  A    between atoms: _129  and  _130
REMARK   55  A    between atoms: _129  and  _132
REMARK   56  A    between atoms: _132  and  _133
REMARK   57  A    between atoms: _138  and  _139
REMARK   58  A    between atoms: _141  and  _143
REMARK   59  A    between atoms: _143  and  _144
REMARK   60  A    between atoms: _143  and  _146
REMARK   61  A    between atoms: _146  and  _147
REMARK   62  A    between atoms: _150  and  _152
REMARK   63  A    between atoms: _152  and  _153
REMARK   64  A    between atoms: _152  and  _155
REMARK   65  A    between atoms: _155  and  _156
REMARK   66  A    between atoms: _159  and  _161
REMARK   67  A    between atoms: _161  and  _162
REMARK   68  A    between atoms: _161  and  _164
REMARK   69  A    between atoms: _164  and  _165
REMARK   70  A    between atoms: _167  and  _169
REMARK   71  A    between atoms: _169  and  _170
REMARK   72  A    between atoms: _169  and  _172
REMARK   73  A    between atoms: _172  and  _173
REMARK   74  A    between atoms: _173  and  _174
REMARK   75  A    between atoms: _176  and  _178
REMARK   76  A    between atoms: _178  and  _179
REMARK   77  A    between atoms: _178  and  _181
REMARK   78  A    between atoms: _181  and  _182
REMARK   79  A    between atoms: _182  and  _183
REMARK   80  A    between atoms: _185  and  _187
REMARK   81  A    between atoms: _187  and  _188
REMARK   82  A    between atoms: _187  and  _190
REMARK   83  A    between atoms: _190  and  _191
REMARK   84  A    between atoms: _191  and  _192
REMARK   85  A    between atoms: _192  and  _193
REMARK   86  A    between atoms: _193  and  _194
REMARK   87  A    between atoms: _198  and  _200
REMARK   88  A    between atoms: _200  and  _201
REMARK   89  A    between atoms: _200  and  _203
REMARK   90  A    between atoms: _203  and  _204
REMARK   91  A    between atoms: _204  and  _205
REMARK   92  A    between atoms: _208  and  _210
REMARK   93  A    between atoms: _210  and  _211
REMARK   94  A    between atoms: _210  and  _213
REMARK   95  A    between atoms: _213  and  _214
REMARK   96  A    between atoms: _214  and  _215
REMARK   97  A    between atoms: _218  and  _220
REMARK   98  A    between atoms: _220  and  _221
REMARK   99  A    between atoms: _220  and  _223
REMARK  100  A    between atoms: _223  and  _224
REMARK  101  A    between atoms: _224  and  _225
REMARK  102  A    between atoms: _227  and  _229
REMARK  103  A    between atoms: _229  and  _230
REMARK  104  A    between atoms: _229  and  _232
REMARK  105  A    between atoms: _232  and  _233
REMARK  106  A    between atoms: _233  and  _234
REMARK  107  A    between atoms: _237  and  _239
REMARK  108  A    between atoms: _239  and  _240
REMARK  109  A    between atoms: _239  and  _242
REMARK  110  A    between atoms: _244  and  _246
REMARK  111  A    between atoms: _246  and  _247
REMARK  112  A    between atoms: _246  and  _249
REMARK  113  A    between atoms: _249  and  _250
REMARK  114  A    between atoms: _252  and  _254
REMARK  115  A    between atoms: _254  and  _255
REMARK  116  A    between atoms: _257  and  _259
REMARK  117  A    between atoms: _259  and  _260
REMARK  118  A    between atoms: _259  and  _262
REMARK  119  A    between atoms: _262  and  _263
REMARK  120  A    between atoms: _266  and  _268
REMARK  121  A    between atoms: _268  and  _269
REMARK  122  A    between atoms: _268  and  _271
REMARK  123  A    between atoms: _271  and  _272
REMARK  124  A    between atoms: _277  and  _278
REMARK  125  A    between atoms: _280  and  _282
REMARK  126  A    between atoms: _282  and  _283
REMARK  127  A    between atoms: _282  and  _285
REMARK  128  A    between atoms: _285  and  _286
REMARK  129  A    between atoms: _288  and  _290
REMARK  130  A    between atoms: _290  and  _291
REMARK  131  A    between atoms: _290  and  _293
REMARK  132  A    between atoms: _293  and  _294
REMARK  133  A    between atoms: _297  and  _299
REMARK  134  A    between atoms: _299  and  _300
REMARK  135  A    between atoms: _299  and  _302
REMARK  136  A    between atoms: _302  and  _303
REMARK  137  A    between atoms: _305  and  _307
REMARK  138  A    between atoms: _307  and  _308
REMARK  139  A    between atoms: _307  and  _310
REMARK  140  A    between atoms: _310  and  _311
REMARK  141  A    between atoms: _316  and  _318
REMARK  142  A    between atoms: _318  and  _319
REMARK  143  A    between atoms: _318  and  _321
REMARK  144  A    between atoms: _321  and  _322
REMARK  145  A    between atoms: _325  and  _327
REMARK  146  A    between atoms: _327  and  _328
REMARK  147  A    between atoms: _327  and  _330
REMARK  148  A    between atoms: _330  and  _331
REMARK  149  A    between atoms: _331  and  _332
REMARK  150  A    between atoms: _335  and  _337
REMARK  151  A    between atoms: _337  and  _338
REMARK  152  A    between atoms: _337  and  _340
REMARK  153  A    between atoms: _340  and  _341
REMARK  154  A    between atoms: _341  and  _342
REMARK  155  A    between atoms: _342  and  _343
REMARK  156  A    between atoms: _352  and  _354
REMARK  157  A    between atoms: _354  and  _355
REMARK  158  A    between atoms: _354  and  _357
REMARK  159  A    between atoms: _357  and  _358
REMARK  160  A    between atoms: _361  and  _363
REMARK  161  A    between atoms: _363  and  _364
REMARK  162  A    between atoms: _363  and  _366
REMARK  163  A    between atoms: _366  and  _367
REMARK  164  A    between atoms: _372  and  _374
REMARK  165  A    between atoms: _374  and  _375
REMARK  166  A    between atoms: _374  and  _377
REMARK  167  A    between atoms: _377  and  _378
REMARK  168  A    between atoms: _378  and  _379
REMARK  169  A    between atoms: _379  and  _380
REMARK  170  A    between atoms: _380  and  _381
REMARK  171  A    between atoms: _385  and  _387
REMARK  172  A    between atoms: _387  and  _388
REMARK  173  A    between atoms: _387  and  _390
REMARK  174  A    between atoms: _390  and  _391
REMARK                            x       y       z     vdW  Elec       q    Type
REMARK                         _______ _______ _______ _____ _____    ______ ____
ROOT
ATOM      1  CA  ARG A   2     -18.941  -9.949  19.458  0.00  0.00    +0.137 C 
ENDROOT
BRANCH   1   3
ATOM      2  C   GLU A   1     -18.645  -9.498  17.103  0.00  0.00    +0.238 C 
ATOM      3  N   ARG A   2     -18.411 -10.281  18.147  0.00  0.00    -0.298 N 
ATOM      4  H   ARG A   2     -17.841 -11.143  18.026  0.00  0.00    +0.150 HD
ATOM      5  O   GLU A   1     -19.267  -8.441  17.192  0.00  0.00    -0.274 OA
BRANCH   2   6
ATOM      6  CA  GLU A   1     -18.116  -9.982  15.756  0.00  0.00    +0.145 C 
BRANCH   6   7
ATOM      7  N   GLU A   1     -16.672  -9.993  15.531  0.00  0.00    -0.238 NA
ATOM      8  H   GLU A   1     -16.235 -10.814  15.065  0.00  0.00    +0.142 HD
ENDBRANCH   6   7
BRANCH   6   9
ATOM      9  CB  GLU A   1     -18.711 -11.364  15.489  0.00  0.00    +0.038 C 
BRANCH   9  10
ATOM     10  CG  GLU A   1     -20.226 -11.380  15.608  0.00  0.00    +0.116 C 
BRANCH  10  11
ATOM     11  CD  GLU A   1     -20.826 -12.745  15.335  0.00  0.00    +0.365 C 
ATOM     12  OE2 GLU A   1     -21.717 -13.168  16.104  0.00  0.00    -0.246 OA
ATOM     13  OE1 GLU A   1     -20.413 -13.387  14.343  0.00  0.00    -0.246 OA
ENDBRANCH  10  11
ENDBRANCH   9  10
ENDBRANCH   6   9
ENDBRANCH   2   6
ENDBRANCH   1   3
BRANCH   1  14
ATOM     14  C   ARG A   2     -18.624  -8.556  19.992  0.00  0.00    +0.227 C 
ATOM     15  O   ARG A   2     -19.521  -7.856  20.462  0.00  0.00    -0.286 OA
ENDBRANCH   1  14
BRANCH   1  16
ATOM     16  CB  ARG A   2     -18.541 -11.026  20.476  0.00  0.00    +0.031 C 
BRANCH  16  17
ATOM     17  CG  ARG A   2     -19.241 -10.870  21.814  0.00  0.00    +0.045 C 
BRANCH  17  18
ATOM     18  CD  ARG A   2     -20.707 -10.533  21.601  0.00  0.00    +0.174 C 
BRANCH  18  19
ATOM     19  NE  ARG A   2     -21.385 -11.568  20.835  0.00  0.00    -0.265 N 
ATOM     20  HE  ARG A   2     -20.949 -12.511  20.800  0.00  0.00    +0.259 HD
ATOM     21  CZ  ARG A   2     -22.525 -11.387  20.177  0.00  0.00    +0.342 C 
ATOM     22  NH2 ARG A   2     -23.123 -10.198  20.182  0.00  0.00    -0.292 N 
ATOM     23 HH21 ARG A   2     -22.698  -9.404  20.703  0.00  0.00    +0.255 HD
ATOM     24 HH22 ARG A   2     -24.015 -10.062  19.665  0.00  0.00    +0.255 HD
ATOM     25  NH1 ARG A   2     -23.071 -12.405  19.524  0.00  0.00    -0.292 N 
ATOM     26 HH11 ARG A   2     -22.607 -13.336  19.530  0.00  0.00    +0.255 HD
ATOM     27 HH12 ARG A   2     -23.963 -12.272  19.006  0.00  0.00    +0.255 HD
ENDBRANCH  18  19
ENDBRANCH  17  18
ENDBRANCH  16  17
ENDBRANCH   1  16
TORSDOF 11
REMARK  Name = ../refined-set-2016/3c2r/3c2r_pocket.pdb
REMARK  174 active torsions:
REMARK  status: ('A' for Active; 'I' for Inactive)
REMARK    1  A    between atoms: _1  and  _3
REMARK    2  A    between atoms: _3  and  _4
REMARK    3  A    between atoms: _7  and  _9
REMARK    4  A    between atoms: _9  and  _10
REMARK    5  A    between atoms: _12  and  _14
REMARK    6  A    between atoms: _14  and  _15
REMARK    7  A    between atoms: _14  and  _17
REMARK    8  A    between atoms: _17  and  _18
REMARK    9  A    between atoms: _21  and  _23
REMARK   10  A    between atoms: _23  and  _24
REMARK   11  A    between atoms: _23  and  _26
REMARK   12  A    between atoms: _26  and  _27
REMARK   13  A    between atoms: _27  and  _28
REMARK   14  A    between atoms: _28  and  _29
REMARK   15  A    between atoms: _38  and  _40
REMARK   16  A    between atoms: _40  and  _41
REMARK   17  A    between atoms: _40  and  _43
REMARK   18  A    between atoms: _43  and  _44
REMARK   19  A    between atoms: _44  and  _45
REMARK   20  A    between atoms: _45  and  _46
REMARK   21  A    between atoms: _46  and  _47
REMARK   22  A    between atoms: _51  and  _53
REMARK   23  A    between atoms: _53  and  _54
REMARK   24  A    between atoms: _53  and  _56
REMARK   25  A    between atoms: _56  and  _57
REMARK   26  A    between atoms: _60  and  _62
REMARK   27  A    between atoms: _62  and  _63
REMARK   28  A    between atoms: _62  and  _65
REMARK   29  A    between atoms: _65  and  _66
REMARK   30  A    between atoms: _66  and  _67
REMARK   31  A    between atoms: _67  and  _68
REMARK   32  A    between atoms: _77  and  _79
REMARK   33  A    between atoms: _79  and  _80
REMARK   34  A    between atoms: _79  and  _82
REMARK   35  A    between atoms: _82  and  _83
REMARK   36  A    between atoms: _83  and  _84
REMARK   37  A    between atoms: _84  and  _85
REMARK   38  A    between atoms: _85  and  _86
REMARK   39  A    between atoms: _90  and  _92
REMARK   40  A    between atoms: _92  and  _93
REMARK   41  A    between atoms: _92  and  _95
REMARK   42  A    between atoms: _95  and  _96
REMARK   43  A    between atoms: _99  and  _101
REMARK   44  A    between atoms: _101  and  _102
REMARK   45  A    between atoms: _101  and  _104
REMARK   46  A    between atoms: _104  and  _105
REMARK   47  A    between atoms: _110  and  _112
REMARK   48  A    between atoms: _112  and  _113
REMARK   49  A    between atoms: _112  and  _115
REMARK   50  A    between atoms: _115  and  _116
REMARK   51  A    between atoms: _116  and  _117
REMARK   52  A    between atoms: _117  and  _118
REMARK   53  A    between atoms: _127  and  _129
REMARK   54  A    between atoms: _129  and  _130
REMARK   55  A    between atoms: _129  and  _132
REMARK   56  A    between atoms: _132  and  _133
REMARK   57  A    between atoms: _138  and  _139
REMARK   58  A    between atoms: _141  and  _143
REMARK   59  A    between atoms: _143  and  _144
REMARK   60  A    between atoms: _143  and  _146
REMARK   61  A    between atoms: _146  and  _147
REMARK   62  A    between atoms: _150  and  _152
REMARK   63  A    between atoms: _152  and  _153
REMARK   64  A    between atoms: _152  and  _155
REMARK   65  A    between atoms: _155  and  _156
REMARK   66  A    between atoms: _159  and  _161
REMARK   67  A    between atoms: _161  and  _162
REMARK   68  A    between atoms: _161  and  _164
REMARK   69  A    between atoms: _164  and  _165
REMARK   70  A    between atoms: _167  and  _169
REMARK   71  A    between atoms: _169  and  _170
REMARK   72  A    between atoms: _169  and  _172
REMARK   73  A    between atoms: _172  and  _173
REMARK   74  A    between atoms: _173  and  _174
REMARK   75  A    between atoms: _176  and  _178
REMARK   76  A    between atoms: _178  and  _179
REMARK   77  A    between atoms: _178  and  _181
REMARK   78  A    between atoms: _181  and  _182
REMARK   79  A    between atoms: _182  and  _183
REMARK   80  A    between atoms: _185  and  _187
REMARK   81  A    between atoms: _187  and  _188
REMARK   82  A    between atoms: _187  and  _190
REMARK   83  A    between atoms: _190  and  _191
REMARK   84  A    between atoms: _191  and  _192
REMARK   85  A    between atoms: _192  and  _193
REMARK   86  A    between atoms: _193  and  _194
REMARK   87  A    between atoms: _198  and  _200
REMARK   88  A    between atoms: _200  and  _201
REMARK   89  A    between atoms: _200  and  _203
REMARK   90  A    between atoms: _203  and  _204
REMARK   91  A    between atoms: _204  and  _205
REMARK   92  A    between atoms: _208  and  _210
REMARK   93  A    between atoms: _210  and  _211
REMARK   94  A    between atoms: _210  and  _213
REMARK   95  A    between atoms: _213  and  _214
REMARK   96  A    between atoms: _214  and  _215
REMARK   97  A    between atoms: _218  and  _220
REMARK   98  A    between atoms: _220  and  _221
REMARK   99  A    between atoms: _220  and  _223
REMARK  100  A    between atoms: _223  and  _224
REMARK  101  A    between atoms: _224  and  _225
REMARK  102  A    between atoms: _227  and  _229
REMARK  103  A    between atoms: _229  and  _230
REMARK  104  A    between atoms: _229  and  _232
REMARK  105  A    between atoms: _232  and  _233
REMARK  106  A    between atoms: _233  and  _234
REMARK  107  A    between atoms: _237  and  _239
REMARK  108  A    between atoms: _239  and  _240
REMARK  109  A    between atoms: _239  and  _242
REMARK  110  A    between atoms: _244  and  _246
REMARK  111  A    between atoms: _246  and  _247
REMARK  112  A    between atoms: _246  and  _249
REMARK  113  A    between atoms: _249  and  _250
REMARK  114  A    between atoms: _252  and  _254
REMARK  115  A    between atoms: _254  and  _255
REMARK  116  A    between atoms: _257  and  _259
REMARK  117  A    between atoms: _259  and  _260
REMARK  118  A    between atoms: _259  and  _262
REMARK  119  A    between atoms: _262  and  _263
REMARK  120  A    between atoms: _266  and  _268
REMARK  121  A    between atoms: _268  and  _269
REMARK  122  A    between atoms: _268  and  _271
REMARK  123  A    between atoms: _271  and  _272
REMARK  124  A    between atoms: _277  and  _278
REMARK  125  A    between atoms: _280  and  _282
REMARK  126  A    between atoms: _282  and  _283
REMARK  127  A    between atoms: _282  and  _285
REMARK  128  A    between atoms: _285  and  _286
REMARK  129  A    between atoms: _288  and  _290
REMARK  130  A    between atoms: _290  and  _291
REMARK  131  A    between atoms: _290  and  _293
REMARK  132  A    between atoms: _293  and  _294
REMARK  133  A    between atoms: _297  and  _299
REMARK  134  A    between atoms: _299  and  _300
REMARK  135  A    between atoms: _299  and  _302
REMARK  136  A    between atoms: _302  and  _303
REMARK  137  A    between atoms: _305  and  _307
REMARK  138  A    between atoms: _307  and  _308
REMARK  139  A    between atoms: _307  and  _310
REMARK  140  A    between atoms: _310  and  _311
REMARK  141  A    between atoms: _316  and  _318
REMARK  142  A    between atoms: _318  and  _319
REMARK  143  A    between atoms: _318  and  _321
REMARK  144  A    between atoms: _321  and  _322
REMARK  145  A    between atoms: _325  and  _327
REMARK  146  A    between atoms: _327  and  _328
REMARK  147  A    between atoms: _327  and  _330
REMARK  148  A    between atoms: _330  and  _331
REMARK  149  A    between atoms: _331  and  _332
REMARK  150  A    between atoms: _335  and  _337
REMARK  151  A    between atoms: _337  and  _338
REMARK  152  A    between atoms: _337  and  _340
REMARK  153  A    between atoms: _340  and  _341
REMARK  154  A    between atoms: _341  and  _342
REMARK  155  A    between atoms: _342  and  _343
REMARK  156  A    between atoms: _352  and  _354
REMARK  157  A    between atoms: _354  and  _355
REMARK  158  A    between atoms: _354  and  _357
REMARK  159  A    between atoms: _357  and  _358
REMARK  160  A    between atoms: _361  and  _363
REMARK  161  A    between atoms: _363  and  _364
REMARK  162  A    between atoms: _363  and  _366
REMARK  163  A    between atoms: _366  and  _367
REMARK  164  A    between atoms: _372  and  _374
REMARK  165  A    between atoms: _374  and  _375
REMARK  166  A    between atoms: _374  and  _377
REMARK  167  A    between atoms: _377  and  _378
REMARK  168  A    between atoms: _378  and  _379
REMARK  169  A    between atoms: _379  and  _380
REMARK  170  A    between atoms: _380  and  _381
REMARK  171  A    between atoms: _385  and  _387
REMARK  172  A    between atoms: _387  and  _388
REMARK  173  A    between atoms: _387  and  _390
REMARK  174  A    between atoms: _390  and  _391
REMARK                            x       y       z     vdW  Elec       q    Type
REMARK                         _______ _______ _______ _____ _____    ______ ____
ROOT
ATOM      1  C   LEU A   1     -22.167  -5.132  19.555  0.00  0.00    +0.238 C 
ATOM      2  N   ASN A   2     -21.341  -5.557  20.510  0.00  0.00    -0.298 N 
ATOM      3  H   ASN A   2     -20.564  -6.204  20.268  0.00  0.00    +0.150 HD
ATOM      4  O   LEU A   1     -23.118  -4.381  19.779  0.00  0.00    -0.274 OA
ENDROOT
BRANCH   1   5
ATOM      5  CA  LEU A   1     -21.895  -5.624  18.141  0.00  0.00    +0.145 C 
BRANCH   5   6
ATOM      6  N   LEU A   1     -20.462  -5.677  17.864  0.00  0.00    -0.238 NA
ATOM      7  H   LEU A   1     -20.000  -6.603  17.762  0.00  0.00    +0.142 HD
ENDBRANCH   5   6
BRANCH   5   8
ATOM      8  CB  LEU A   1     -22.537  -7.005  17.936  0.00  0.00    +0.026 C 
BRANCH   8   9
ATOM      9  CG  LEU A   1     -22.321  -7.607  16.533  0.00  0.00    +0.002 C 
ATOM     10  CD2 LEU A   1     -23.204  -8.820  16.359  0.00  0.00    +0.000 C 
ATOM     11  CD1 LEU A   1     -22.645  -6.586  15.454  0.00  0.00    +0.000 C 
ENDBRANCH   8   9
ENDBRANCH   5   8
ENDBRANCH   1   5
BRANCH   2  12
ATOM     12  CA  ASN A   2     -21.515  -5.124  21.892  0.00  0.00    +0.146 C 
BRANCH  12  13
ATOM     13  C   ASN A   2     -21.377  -3.622  21.941  0.00  0.00    +0.227 C 
ATOM     14  O   ASN A   2     -21.950  -2.989  22.804  0.00  0.00    -0.286 OA
ENDBRANCH  12  13
BRANCH  12  15
ATOM     15  CB  ASN A   2     -20.483  -5.769  22.834  0.00  0.00    +0.112 C 
BRANCH  15  16
ATOM     16  CG  ASN A   2     -20.846  -7.188  23.208  0.00  0.00    +0.222 C 
ATOM     17  ND2 ASN A   2     -19.855  -7.980  23.633  0.00  0.00    -0.329 N 
ATOM     18 HD21 ASN A   2     -20.058  -8.960  23.917  0.00  0.00    +0.145 HD
ATOM     19 HD22 ASN A   2     -18.882  -7.616  23.680  0.00  0.00    +0.145 HD
ATOM     20  OD1 ASN A   2     -22.010  -7.567  23.134  0.00  0.00    -0.275 OA
ENDBRANCH  15  16
ENDBRANCH  12  15
ENDBRANCH   2  12
TORSDOF 8
REMARK  Name = ../refined-set-2016/3c2r/3c2r_pocket.pdb
REMARK  174 active torsions:
REMARK  status: ('A' for Active; 'I' for Inactive)
REMARK    1  A    between atoms: _1  and  _3
REMARK    2  A    between atoms: _3  and  _4
REMARK    3  A    between atoms: _7  and  _9
REMARK    4  A    between atoms: _9  and  _10
REMARK    5  A    between atoms: _12  and  _14
REMARK    6  A    between atoms: _14  and  _15
REMARK    7  A    between atoms: _14  and  _17
REMARK    8  A    between atoms: _17  and  _18
REMARK    9  A    between atoms: _21  and  _23
REMARK   10  A    between atoms: _23  and  _24
REMARK   11  A    between atoms: _23  and  _26
REMARK   12  A    between atoms: _26  and  _27
REMARK   13  A    between atoms: _27  and  _28
REMARK   14  A    between atoms: _28  and  _29
REMARK   15  A    between atoms: _38  and  _40
REMARK   16  A    between atoms: _40  and  _41
REMARK   17  A    between atoms: _40  and  _43
REMARK   18  A    between atoms: _43  and  _44
REMARK   19  A    between atoms: _44  and  _45
REMARK   20  A    between atoms: _45  and  _46
REMARK   21  A    between atoms: _46  and  _47
REMARK   22  A    between atoms: _51  and  _53
REMARK   23  A    between atoms: _53  and  _54
REMARK   24  A    between atoms: _53  and  _56
REMARK   25  A    between atoms: _56  and  _57
REMARK   26  A    between atoms: _60  and  _62
REMARK   27  A    between atoms: _62  and  _63
REMARK   28  A    between atoms: _62  and  _65
REMARK   29  A    between atoms: _65  and  _66
REMARK   30  A    between atoms: _66  and  _67
REMARK   31  A    between atoms: _67  and  _68
REMARK   32  A    between atoms: _77  and  _79
REMARK   33  A    between atoms: _79  and  _80
REMARK   34  A    between atoms: _79  and  _82
REMARK   35  A    between atoms: _82  and  _83
REMARK   36  A    between atoms: _83  and  _84
REMARK   37  A    between atoms: _84  and  _85
REMARK   38  A    between atoms: _85  and  _86
REMARK   39  A    between atoms: _90  and  _92
REMARK   40  A    between atoms: _92  and  _93
REMARK   41  A    between atoms: _92  and  _95
REMARK   42  A    between atoms: _95  and  _96
REMARK   43  A    between atoms: _99  and  _101
REMARK   44  A    between atoms: _101  and  _102
REMARK   45  A    between atoms: _101  and  _104
REMARK   46  A    between atoms: _104  and  _105
REMARK   47  A    between atoms: _110  and  _112
REMARK   48  A    between atoms: _112  and  _113
REMARK   49  A    between atoms: _112  and  _115
REMARK   50  A    between atoms: _115  and  _116
REMARK   51  A    between atoms: _116  and  _117
REMARK   52  A    between atoms: _117  and  _118
REMARK   53  A    between atoms: _127  and  _129
REMARK   54  A    between atoms: _129  and  _130
REMARK   55  A    between atoms: _129  and  _132
REMARK   56  A    between atoms: _132  and  _133
REMARK   57  A    between atoms: _138  and  _139
REMARK   58  A    between atoms: _141  and  _143
REMARK   59  A    between atoms: _143  and  _144
REMARK   60  A    between atoms: _143  and  _146
REMARK   61  A    between atoms: _146  and  _147
REMARK   62  A    between atoms: _150  and  _152
REMARK   63  A    between atoms: _152  and  _153
REMARK   64  A    between atoms: _152  and  _155
REMARK   65  A    between atoms: _155  and  _156
REMARK   66  A    between atoms: _159  and  _161
REMARK   67  A    between atoms: _161  and  _162
REMARK   68  A    between atoms: _161  and  _164
REMARK   69  A    between atoms: _164  and  _165
REMARK   70  A    between atoms: _167  and  _169
REMARK   71  A    between atoms: _169  and  _170
REMARK   72  A    between atoms: _169  and  _172
REMARK   73  A    between atoms: _172  and  _173
REMARK   74  A    between atoms: _173  and  _174
REMARK   75  A    between atoms: _176  and  _178
REMARK   76  A    between atoms: _178  and  _179
REMARK   77  A    between atoms: _178  and  _181
REMARK   78  A    between atoms: _181  and  _182
REMARK   79  A    between atoms: _182  and  _183
REMARK   80  A    between atoms: _185  and  _187
REMARK   81  A    between atoms: _187  and  _188
REMARK   82  A    between atoms: _187  and  _190
REMARK   83  A    between atoms: _190  and  _191
REMARK   84  A    between atoms: _191  and  _192
REMARK   85  A    between atoms: _192  and  _193
REMARK   86  A    between atoms: _193  and  _194
REMARK   87  A    between atoms: _198  and  _200
REMARK   88  A    between atoms: _200  and  _201
REMARK   89  A    between atoms: _200  and  _203
REMARK   90  A    between atoms: _203  and  _204
REMARK   91  A    between atoms: _204  and  _205
REMARK   92  A    between atoms: _208  and  _210
REMARK   93  A    between atoms: _210  and  _211
REMARK   94  A    between atoms: _210  and  _213
REMARK   95  A    between atoms: _213  and  _214
REMARK   96  A    between atoms: _214  and  _215
REMARK   97  A    between atoms: _218  and  _220
REMARK   98  A    between atoms: _220  and  _221
REMARK   99  A    between atoms: _220  and  _223
REMARK  100  A    between atoms: _223  and  _224
REMARK  101  A    between atoms: _224  and  _225
REMARK  102  A    between atoms: _227  and  _229
REMARK  103  A    between atoms: _229  and  _230
REMARK  104  A    between atoms: _229  and  _232
REMARK  105  A    between atoms: _232  and  _233
REMARK  106  A    between atoms: _233  and  _234
REMARK  107  A    between atoms: _237  and  _239
REMARK  108  A    between atoms: _239  and  _240
REMARK  109  A    between atoms: _239  and  _242
REMARK  110  A    between atoms: _244  and  _246
REMARK  111  A    between atoms: _246  and  _247
REMARK  112  A    between atoms: _246  and  _249
REMARK  113  A    between atoms: _249  and  _250
REMARK  114  A    between atoms: _252  and  _254
REMARK  115  A    between atoms: _254  and  _255
REMARK  116  A    between atoms: _257  and  _259
REMARK  117  A    between atoms: _259  and  _260
REMARK  118  A    between atoms: _259  and  _262
REMARK  119  A    between atoms: _262  and  _263
REMARK  120  A    between atoms: _266  and  _268
REMARK  121  A    between atoms: _268  and  _269
REMARK  122  A    between atoms: _268  and  _271
REMARK  123  A    between atoms: _271  and  _272
REMARK  124  A    between atoms: _277  and  _278
REMARK  125  A    between atoms: _280  and  _282
REMARK  126  A    between atoms: _282  and  _283
REMARK  127  A    between atoms: _282  and  _285
REMARK  128  A    between atoms: _285  and  _286
REMARK  129  A    between atoms: _288  and  _290
REMARK  130  A    between atoms: _290  and  _291
REMARK  131  A    between atoms: _290  and  _293
REMARK  132  A    between atoms: _293  and  _294
REMARK  133  A    between atoms: _297  and  _299
REMARK  134  A    between atoms: _299  and  _300
REMARK  135  A    between atoms: _299  and  _302
REMARK  136  A    between atoms: _302  and  _303
REMARK  137  A    between atoms: _305  and  _307
REMARK  138  A    between atoms: _307  and  _308
REMARK  139  A    between atoms: _307  and  _310
REMARK  140  A    between atoms: _310  and  _311
REMARK  141  A    between atoms: _316  and  _318
REMARK  142  A    between atoms: _318  and  _319
REMARK  143  A    between atoms: _318  and  _321
REMARK  144  A    between atoms: _321  and  _322
REMARK  145  A    between atoms: _325  and  _327
REMARK  146  A    between atoms: _327  and  _328
REMARK  147  A    between atoms: _327  and  _330
REMARK  148  A    between atoms: _330  and  _331
REMARK  149  A    between atoms: _331  and  _332
REMARK  150  A    between atoms: _335  and  _337
REMARK  151  A    between atoms: _337  and  _338
REMARK  152  A    between atoms: _337  and  _340
REMARK  153  A    between atoms: _340  and  _341
REMARK  154  A    between atoms: _341  and  _342
REMARK  155  A    between atoms: _342  and  _343
REMARK  156  A    between atoms: _352  and  _354
REMARK  157  A    between atoms: _354  and  _355
REMARK  158  A    between atoms: _354  and  _357
REMARK  159  A    between atoms: _357  and  _358
REMARK  160  A    between atoms: _361  and  _363
REMARK  161  A    between atoms: _363  and  _364
REMARK  162  A    between atoms: _363  and  _366
REMARK  163  A    between atoms: _366  and  _367
REMARK  164  A    between atoms: _372  and  _374
REMARK  165  A    between atoms: _374  and  _375
REMARK  166  A    between atoms: _374  and  _377
REMARK  167  A    between atoms: _377  and  _378
REMARK  168  A    between atoms: _378  and  _379
REMARK  169  A    between atoms: _379  and  _380
REMARK  170  A    between atoms: _380  and  _381
REMARK  171  A    between atoms: _385  and  _387
REMARK  172  A    between atoms: _387  and  _388
REMARK  173  A    between atoms: _387  and  _390
REMARK  174  A    between atoms: _390  and  _391
REMARK                            x       y       z     vdW  Elec       q    Type
REMARK                         _______ _______ _______ _____ _____    ______ ____
ROOT
ATOM      1  CG  LYS A   1     -26.330 -13.775  10.580  0.00  0.00    -0.000 C 
ENDROOT
BRANCH   1   2
ATOM      2  CB  LYS A   1     -25.410 -13.984   9.380  0.00  0.00    +0.025 C 
BRANCH   2   3
ATOM      3  CA  LYS A   1     -23.963 -13.565   9.638  0.00  0.00    +0.133 C 
BRANCH   3   4
ATOM      4  N   LYS A   1     -23.927 -12.216  10.175  0.00  0.00    -0.239 NA
ATOM      5  H   LYS A   1     -24.084 -11.402   9.548  0.00  0.00    +0.142 HD
ENDBRANCH   3   4
BRANCH   3   6
ATOM      6  C   LYS A   1     -23.161 -13.653   8.358  0.00  0.00    +0.224 C 
ATOM      7  O   LYS A   1     -23.290 -12.802   7.487  0.00  0.00    -0.287 OA
ENDBRANCH   3   6
ENDBRANCH   2   3
ENDBRANCH   1   2
BRANCH   1   8
ATOM      8  CD  LYS A   1     -25.830 -14.525  11.807  0.00  0.00    -0.024 C 
BRANCH   8   9
ATOM      9  CE  LYS A   1     -26.666 -14.203  13.034  0.00  0.00    -0.086 C 
BRANCH   9  10
ATOM     10  NZ  LYS A   1     -26.082 -14.791  14.276  0.00  0.00    +0.380 N 
ATOM     11  HZ1 LYS A   1     -26.683 -14.548  15.089  0.00  0.00    -0.089 HD
ATOM     12  HZ2 LYS A   1     -25.126 -14.408  14.423  0.00  0.00    -0.089 HD
ATOM     13  HZ3 LYS A   1     -26.031 -15.825  14.178  0.00  0.00    -0.089 HD
ENDBRANCH   9  10
ENDBRANCH   8   9
ENDBRANCH   1   8
TORSDOF 7
REMARK  Name = ../refined-set-2016/3c2r/3c2r_pocket.pdb
REMARK  174 active torsions:
REMARK  status: ('A' for Active; 'I' for Inactive)
REMARK    1  A    between atoms: _1  and  _3
REMARK    2  A    between atoms: _3  and  _4
REMARK    3  A    between atoms: _7  and  _9
REMARK    4  A    between atoms: _9  and  _10
REMARK    5  A    between atoms: _12  and  _14
REMARK    6  A    between atoms: _14  and  _15
REMARK    7  A    between atoms: _14  and  _17
REMARK    8  A    between atoms: _17  and  _18
REMARK    9  A    between atoms: _21  and  _23
REMARK   10  A    between atoms: _23  and  _24
REMARK   11  A    between atoms: _23  and  _26
REMARK   12  A    between atoms: _26  and  _27
REMARK   13  A    between atoms: _27  and  _28
REMARK   14  A    between atoms: _28  and  _29
REMARK   15  A    between atoms: _38  and  _40
REMARK   16  A    between atoms: _40  and  _41
REMARK   17  A    between atoms: _40  and  _43
REMARK   18  A    between atoms: _43  and  _44
REMARK   19  A    between atoms: _44  and  _45
REMARK   20  A    between atoms: _45  and  _46
REMARK   21  A    between atoms: _46  and  _47
REMARK   22  A    between atoms: _51  and  _53
REMARK   23  A    between atoms: _53  and  _54
REMARK   24  A    between atoms: _53  and  _56
REMARK   25  A    between atoms: _56  and  _57
REMARK   26  A    between atoms: _60  and  _62
REMARK   27  A    between atoms: _62  and  _63
REMARK   28  A    between atoms: _62  and  _65
REMARK   29  A    between atoms: _65  and  _66
REMARK   30  A    between atoms: _66  and  _67
REMARK   31  A    between atoms: _67  and  _68
REMARK   32  A    between atoms: _77  and  _79
REMARK   33  A    between atoms: _79  and  _80
REMARK   34  A    between atoms: _79  and  _82
REMARK   35  A    between atoms: _82  and  _83
REMARK   36  A    between atoms: _83  and  _84
REMARK   37  A    between atoms: _84  and  _85
REMARK   38  A    between atoms: _85  and  _86
REMARK   39  A    between atoms: _90  and  _92
REMARK   40  A    between atoms: _92  and  _93
REMARK   41  A    between atoms: _92  and  _95
REMARK   42  A    between atoms: _95  and  _96
REMARK   43  A    between atoms: _99  and  _101
REMARK   44  A    between atoms: _101  and  _102
REMARK   45  A    between atoms: _101  and  _104
REMARK   46  A    between atoms: _104  and  _105
REMARK   47  A    between atoms: _110  and  _112
REMARK   48  A    between atoms: _112  and  _113
REMARK   49  A    between atoms: _112  and  _115
REMARK   50  A    between atoms: _115  and  _116
REMARK   51  A    between atoms: _116  and  _117
REMARK   52  A    between atoms: _117  and  _118
REMARK   53  A    between atoms: _127  and  _129
REMARK   54  A    between atoms: _129  and  _130
REMARK   55  A    between atoms: _129  and  _132
REMARK   56  A    between atoms: _132  and  _133
REMARK   57  A    between atoms: _138  and  _139
REMARK   58  A    between atoms: _141  and  _143
REMARK   59  A    between atoms: _143  and  _144
REMARK   60  A    between atoms: _143  and  _146
REMARK   61  A    between atoms: _146  and  _147
REMARK   62  A    between atoms: _150  and  _152
REMARK   63  A    between atoms: _152  and  _153
REMARK   64  A    between atoms: _152  and  _155
REMARK   65  A    between atoms: _155  and  _156
REMARK   66  A    between atoms: _159  and  _161
REMARK   67  A    between atoms: _161  and  _162
REMARK   68  A    between atoms: _161  and  _164
REMARK   69  A    between atoms: _164  and  _165
REMARK   70  A    between atoms: _167  and  _169
REMARK   71  A    between atoms: _169  and  _170
REMARK   72  A    between atoms: _169  and  _172
REMARK   73  A    between atoms: _172  and  _173
REMARK   74  A    between atoms: _173  and  _174
REMARK   75  A    between atoms: _176  and  _178
REMARK   76  A    between atoms: _178  and  _179
REMARK   77  A    between atoms: _178  and  _181
REMARK   78  A    between atoms: _181  and  _182
REMARK   79  A    between atoms: _182  and  _183
REMARK   80  A    between atoms: _185  and  _187
REMARK   81  A    between atoms: _187  and  _188
REMARK   82  A    between atoms: _187  and  _190
REMARK   83  A    between atoms: _190  and  _191
REMARK   84  A    between atoms: _191  and  _192
REMARK   85  A    between atoms: _192  and  _193
REMARK   86  A    between atoms: _193  and  _194
REMARK   87  A    between atoms: _198  and  _200
REMARK   88  A    between atoms: _200  and  _201
REMARK   89  A    between atoms: _200  and  _203
REMARK   90  A    between atoms: _203  and  _204
REMARK   91  A    between atoms: _204  and  _205
REMARK   92  A    between atoms: _208  and  _210
REMARK   93  A    between atoms: _210  and  _211
REMARK   94  A    between atoms: _210  and  _213
REMARK   95  A    between atoms: _213  and  _214
REMARK   96  A    between atoms: _214  and  _215
REMARK   97  A    between atoms: _218  and  _220
REMARK   98  A    between atoms: _220  and  _221
REMARK   99  A    between atoms: _220  and  _223
REMARK  100  A    between atoms: _223  and  _224
REMARK  101  A    between atoms: _224  and  _225
REMARK  102  A    between atoms: _227  and  _229
REMARK  103  A    between atoms: _229  and  _230
REMARK  104  A    between atoms: _229  and  _232
REMARK  105  A    between atoms: _232  and  _233
REMARK  106  A    between atoms: _233  and  _234
REMARK  107  A    between atoms: _237  and  _239
REMARK  108  A    between atoms: _239  and  _240
REMARK  109  A    between atoms: _239  and  _242
REMARK  110  A    between atoms: _244  and  _246
REMARK  111  A    between atoms: _246  and  _247
REMARK  112  A    between atoms: _246  and  _249
REMARK  113  A    between atoms: _249  and  _250
REMARK  114  A    between atoms: _252  and  _254
REMARK  115  A    between atoms: _254  and  _255
REMARK  116  A    between atoms: _257  and  _259
REMARK  117  A    between atoms: _259  and  _260
REMARK  118  A    between atoms: _259  and  _262
REMARK  119  A    between atoms: _262  and  _263
REMARK  120  A    between atoms: _266  and  _268
REMARK  121  A    between atoms: _268  and  _269
REMARK  122  A    between atoms: _268  and  _271
REMARK  123  A    between atoms: _271  and  _272
REMARK  124  A    between atoms: _277  and  _278
REMARK  125  A    between atoms: _280  and  _282
REMARK  126  A    between atoms: _282  and  _283
REMARK  127  A    between atoms: _282  and  _285
REMARK  128  A    between atoms: _285  and  _286
REMARK  129  A    between atoms: _288  and  _290
REMARK  130  A    between atoms: _290  and  _291
REMARK  131  A    between atoms: _290  and  _293
REMARK  132  A    between atoms: _293  and  _294
REMARK  133  A    between atoms: _297  and  _299
REMARK  134  A    between atoms: _299  and  _300
REMARK  135  A    between atoms: _299  and  _302
REMARK  136  A    between atoms: _302  and  _303
REMARK  137  A    between atoms: _305  and  _307
REMARK  138  A    between atoms: _307  and  _308
REMARK  139  A    between atoms: _307  and  _310
REMARK  140  A    between atoms: _310  and  _311
REMARK  141  A    between atoms: _316  and  _318
REMARK  142  A    between atoms: _318  and  _319
REMARK  143  A    between atoms: _318  and  _321
REMARK  144  A    between atoms: _321  and  _322
REMARK  145  A    between atoms: _325  and  _327
REMARK  146  A    between atoms: _327  and  _328
REMARK  147  A    between atoms: _327  and  _330
REMARK  148  A    between atoms: _330  and  _331
REMARK  149  A    between atoms: _331  and  _332
REMARK  150  A    between atoms: _335  and  _337
REMARK  151  A    between atoms: _337  and  _338
REMARK  152  A    between atoms: _337  and  _340
REMARK  153  A    between atoms: _340  and  _341
REMARK  154  A    between atoms: _341  and  _342
REMARK  155  A    between atoms: _342  and  _343
REMARK  156  A    between atoms: _352  and  _354
REMARK  157  A    between atoms: _354  and  _355
REMARK  158  A    between atoms: _354  and  _357
REMARK  159  A    between atoms: _357  and  _358
REMARK  160  A    between atoms: _361  and  _363
REMARK  161  A    between atoms: _363  and  _364
REMARK  162  A    between atoms: _363  and  _366
REMARK  163  A    between atoms: _366  and  _367
REMARK  164  A    between atoms: _372  and  _374
REMARK  165  A    between atoms: _374  and  _375
REMARK  166  A    between atoms: _374  and  _377
REMARK  167  A    between atoms: _377  and  _378
REMARK  168  A    between atoms: _378  and  _379
REMARK  169  A    between atoms: _379  and  _380
REMARK  170  A    between atoms: _380  and  _381
REMARK  171  A    between atoms: _385  and  _387
REMARK  172  A    between atoms: _387  and  _388
REMARK  173  A    between atoms: _387  and  _390
REMARK  174  A    between atoms: _390  and  _391
REMARK                            x       y       z     vdW  Elec       q    Type
REMARK                         _______ _______ _______ _____ _____    ______ ____
ROOT
ATOM      1  CB  PHE A   1     -23.028 -26.025  32.702  0.00  0.00    +0.051 C 
ENDROOT
BRANCH   1   2
ATOM      2  CG  PHE A   1     -23.260 -25.072  31.557  0.00  0.00    -0.020 A 
ATOM      3  CD2 PHE A   1     -23.829 -23.820  31.775  0.00  0.00    -0.004 A 
ATOM      4  CE2 PHE A   1     -24.030 -22.931  30.720  0.00  0.00    -0.000 A 
ATOM      5  CZ  PHE A   1     -23.660 -23.292  29.432  0.00  0.00    -0.000 A 
ATOM      6  CE1 PHE A   1     -23.091 -24.538  29.202  0.00  0.00    -0.000 A 
ATOM      7  CD1 PHE A   1     -22.894 -25.421  30.263  0.00  0.00    -0.004 A 
ENDBRANCH   1   2
BRANCH   1   8
ATOM      8  CA  PHE A   1     -21.709 -25.789  33.437  0.00  0.00    +0.137 C 
BRANCH   8   9
ATOM      9  N   PHE A   1     -21.813 -24.634  34.329  0.00  0.00    -0.239 NA
ATOM     10  H   PHE A   1     -22.525 -23.903  34.130  0.00  0.00    +0.142 HD
ENDBRANCH   8   9
BRANCH   8  11
ATOM     11  C   PHE A   1     -20.627 -25.712  32.373  0.00  0.00    +0.224 C 
ATOM     12  O   PHE A   1     -20.168 -26.745  31.879  0.00  0.00    -0.287 OA
ENDBRANCH   8  11
ENDBRANCH   1   8
TORSDOF 4
REMARK  Name = ../refined-set-2016/3c2r/3c2r_pocket.pdb
REMARK  174 active torsions:
REMARK  status: ('A' for Active; 'I' for Inactive)
REMARK    1  A    between atoms: _1  and  _3
REMARK    2  A    between atoms: _3  and  _4
REMARK    3  A    between atoms: _7  and  _9
REMARK    4  A    between atoms: _9  and  _10
REMARK    5  A    between atoms: _12  and  _14
REMARK    6  A    between atoms: _14  and  _15
REMARK    7  A    between atoms: _14  and  _17
REMARK    8  A    between atoms: _17  and  _18
REMARK    9  A    between atoms: _21  and  _23
REMARK   10  A    between atoms: _23  and  _24
REMARK   11  A    between atoms: _23  and  _26
REMARK   12  A    between atoms: _26  and  _27
REMARK   13  A    between atoms: _27  and  _28
REMARK   14  A    between atoms: _28  and  _29
REMARK   15  A    between atoms: _38  and  _40
REMARK   16  A    between atoms: _40  and  _41
REMARK   17  A    between atoms: _40  and  _43
REMARK   18  A    between atoms: _43  and  _44
REMARK   19  A    between atoms: _44  and  _45
REMARK   20  A    between atoms: _45  and  _46
REMARK   21  A    between atoms: _46  and  _47
REMARK   22  A    between atoms: _51  and  _53
REMARK   23  A    between atoms: _53  and  _54
REMARK   24  A    between atoms: _53  and  _56
REMARK   25  A    between atoms: _56  and  _57
REMARK   26  A    between atoms: _60  and  _62
REMARK   27  A    between atoms: _62  and  _63
REMARK   28  A    between atoms: _62  and  _65
REMARK   29  A    between atoms: _65  and  _66
REMARK   30  A    between atoms: _66  and  _67
REMARK   31  A    between atoms: _67  and  _68
REMARK   32  A    between atoms: _77  and  _79
REMARK   33  A    between atoms: _79  and  _80
REMARK   34  A    between atoms: _79  and  _82
REMARK   35  A    between atoms: _82  and  _83
REMARK   36  A    between atoms: _83  and  _84
REMARK   37  A    between atoms: _84  and  _85
REMARK   38  A    between atoms: _85  and  _86
REMARK   39  A    between atoms: _90  and  _92
REMARK   40  A    between atoms: _92  and  _93
REMARK   41  A    between atoms: _92  and  _95
REMARK   42  A    between atoms: _95  and  _96
REMARK   43  A    between atoms: _99  and  _101
REMARK   44  A    between atoms: _101  and  _102
REMARK   45  A    between atoms: _101  and  _104
REMARK   46  A    between atoms: _104  and  _105
REMARK   47  A    between atoms: _110  and  _112
REMARK   48  A    between atoms: _112  and  _113
REMARK   49  A    between atoms: _112  and  _115
REMARK   50  A    between atoms: _115  and  _116
REMARK   51  A    between atoms: _116  and  _117
REMARK   52  A    between atoms: _117  and  _118
REMARK   53  A    between atoms: _127  and  _129
REMARK   54  A    between atoms: _129  and  _130
REMARK   55  A    between atoms: _129  and  _132
REMARK   56  A    between atoms: _132  and  _133
REMARK   57  A    between atoms: _138  and  _139
REMARK   58  A    between atoms: _141  and  _143
REMARK   59  A    between atoms: _143  and  _144
REMARK   60  A    between atoms: _143  and  _146
REMARK   61  A    between atoms: _146  and  _147
REMARK   62  A    between atoms: _150  and  _152
REMARK   63  A    between atoms: _152  and  _153
REMARK   64  A    between atoms: _152  and  _155
REMARK   65  A    between atoms: _155  and  _156
REMARK   66  A    between atoms: _159  and  _161
REMARK   67  A    between atoms: _161  and  _162
REMARK   68  A    between atoms: _161  and  _164
REMARK   69  A    between atoms: _164  and  _165
REMARK   70  A    between atoms: _167  and  _169
REMARK   71  A    between atoms: _169  and  _170
REMARK   72  A    between atoms: _169  and  _172
REMARK   73  A    between atoms: _172  and  _173
REMARK   74  A    between atoms: _173  and  _174
REMARK   75  A    between atoms: _176  and  _178
REMARK   76  A    between atoms: _178  and  _179
REMARK   77  A    between atoms: _178  and  _181
REMARK   78  A    between atoms: _181  and  _182
REMARK   79  A    between atoms: _182  and  _183
REMARK   80  A    between atoms: _185  and  _187
REMARK   81  A    between atoms: _187  and  _188
REMARK   82  A    between atoms: _187  and  _190
REMARK   83  A    between atoms: _190  and  _191
REMARK   84  A    between atoms: _191  and  _192
REMARK   85  A    between atoms: _192  and  _193
REMARK   86  A    between atoms: _193  and  _194
REMARK   87  A    between atoms: _198  and  _200
REMARK   88  A    between atoms: _200  and  _201
REMARK   89  A    between atoms: _200  and  _203
REMARK   90  A    between atoms: _203  and  _204
REMARK   91  A    between atoms: _204  and  _205
REMARK   92  A    between atoms: _208  and  _210
REMARK   93  A    between atoms: _210  and  _211
REMARK   94  A    between atoms: _210  and  _213
REMARK   95  A    between atoms: _213  and  _214
REMARK   96  A    between atoms: _214  and  _215
REMARK   97  A    between atoms: _218  and  _220
REMARK   98  A    between atoms: _220  and  _221
REMARK   99  A    between atoms: _220  and  _223
REMARK  100  A    between atoms: _223  and  _224
REMARK  101  A    between atoms: _224  and  _225
REMARK  102  A    between atoms: _227  and  _229
REMARK  103  A    between atoms: _229  and  _230
REMARK  104  A    between atoms: _229  and  _232
REMARK  105  A    between atoms: _232  and  _233
REMARK  106  A    between atoms: _233  and  _234
REMARK  107  A    between atoms: _237  and  _239
REMARK  108  A    between atoms: _239  and  _240
REMARK  109  A    between atoms: _239  and  _242
REMARK  110  A    between atoms: _244  and  _246
REMARK  111  A    between atoms: _246  and  _247
REMARK  112  A    between atoms: _246  and  _249
REMARK  113  A    between atoms: _249  and  _250
REMARK  114  A    between atoms: _252  and  _254
REMARK  115  A    between atoms: _254  and  _255
REMARK  116  A    between atoms: _257  and  _259
REMARK  117  A    between atoms: _259  and  _260
REMARK  118  A    between atoms: _259  and  _262
REMARK  119  A    between atoms: _262  and  _263
REMARK  120  A    between atoms: _266  and  _268
REMARK  121  A    between atoms: _268  and  _269
REMARK  122  A    between atoms: _268  and  _271
REMARK  123  A    between atoms: _271  and  _272
REMARK  124  A    between atoms: _277  and  _278
REMARK  125  A    between atoms: _280  and  _282
REMARK  126  A    between atoms: _282  and  _283
REMARK  127  A    between atoms: _282  and  _285
REMARK  128  A    between atoms: _285  and  _286
REMARK  129  A    between atoms: _288  and  _290
REMARK  130  A    between atoms: _290  and  _291
REMARK  131  A    between atoms: _290  and  _293
REMARK  132  A    between atoms: _293  and  _294
REMARK  133  A    between atoms: _297  and  _299
REMARK  134  A    between atoms: _299  and  _300
REMARK  135  A    between atoms: _299  and  _302
REMARK  136  A    between atoms: _302  and  _303
REMARK  137  A    between atoms: _305  and  _307
REMARK  138  A    between atoms: _307  and  _308
REMARK  139  A    between atoms: _307  and  _310
REMARK  140  A    between atoms: _310  and  _311
REMARK  141  A    between atoms: _316  and  _318
REMARK  142  A    between atoms: _318  and  _319
REMARK  143  A    between atoms: _318  and  _321
REMARK  144  A    between atoms: _321  and  _322
REMARK  145  A    between atoms: _325  and  _327
REMARK  146  A    between atoms: _327  and  _328
REMARK  147  A    between atoms: _327  and  _330
REMARK  148  A    between atoms: _330  and  _331
REMARK  149  A    between atoms: _331  and  _332
REMARK  150  A    between atoms: _335  and  _337
REMARK  151  A    between atoms: _337  and  _338
REMARK  152  A    between atoms: _337  and  _340
REMARK  153  A    between atoms: _340  and  _341
REMARK  154  A    between atoms: _341  and  _342
REMARK  155  A    between atoms: _342  and  _343
REMARK  156  A    between atoms: _352  and  _354
REMARK  157  A    between atoms: _354  and  _355
REMARK  158  A    between atoms: _354  and  _357
REMARK  159  A    between atoms: _357  and  _358
REMARK  160  A    between atoms: _361  and  _363
REMARK  161  A    between atoms: _363  and  _364
REMARK  162  A    between atoms: _363  and  _366
REMARK  163  A    between atoms: _366  and  _367
REMARK  164  A    between atoms: _372  and  _374
REMARK  165  A    between atoms: _374  and  _375
REMARK  166  A    between atoms: _374  and  _377
REMARK  167  A    between atoms: _377  and  _378
REMARK  168  A    between atoms: _378  and  _379
REMARK  169  A    between atoms: _379  and  _380
REMARK  170  A    between atoms: _380  and  _381
REMARK  171  A    between atoms: _385  and  _387
REMARK  172  A    between atoms: _387  and  _388
REMARK  173  A    between atoms: _387  and  _390
REMARK  174  A    between atoms: _390  and  _391
REMARK                            x       y       z     vdW  Elec       q    Type
REMARK                         _______ _______ _______ _____ _____    ______ ____
ROOT
ATOM      1  O   HOH     1     -21.518 -17.493  20.045  0.00  0.00    +0.000 OA
ENDROOT
TORSDOF 0
REMARK  Name = ../refined-set-2016/3c2r/3c2r_pocket.pdb
REMARK  174 active torsions:
REMARK  status: ('A' for Active; 'I' for Inactive)
REMARK    1  A    between atoms: _1  and  _3
REMARK    2  A    between atoms: _3  and  _4
REMARK    3  A    between atoms: _7  and  _9
REMARK    4  A    between atoms: _9  and  _10
REMARK    5  A    between atoms: _12  and  _14
REMARK    6  A    between atoms: _14  and  _15
REMARK    7  A    between atoms: _14  and  _17
REMARK    8  A    between atoms: _17  and  _18
REMARK    9  A    between atoms: _21  and  _23
REMARK   10  A    between atoms: _23  and  _24
REMARK   11  A    between atoms: _23  and  _26
REMARK   12  A    between atoms: _26  and  _27
REMARK   13  A    between atoms: _27  and  _28
REMARK   14  A    between atoms: _28  and  _29
REMARK   15  A    between atoms: _38  and  _40
REMARK   16  A    between atoms: _40  and  _41
REMARK   17  A    between atoms: _40  and  _43
REMARK   18  A    between atoms: _43  and  _44
REMARK   19  A    between atoms: _44  and  _45
REMARK   20  A    between atoms: _45  and  _46
REMARK   21  A    between atoms: _46  and  _47
REMARK   22  A    between atoms: _51  and  _53
REMARK   23  A    between atoms: _53  and  _54
REMARK   24  A    between atoms: _53  and  _56
REMARK   25  A    between atoms: _56  and  _57
REMARK   26  A    between atoms: _60  and  _62
REMARK   27  A    between atoms: _62  and  _63
REMARK   28  A    between atoms: _62  and  _65
REMARK   29  A    between atoms: _65  and  _66
REMARK   30  A    between atoms: _66  and  _67
REMARK   31  A    between atoms: _67  and  _68
REMARK   32  A    between atoms: _77  and  _79
REMARK   33  A    between atoms: _79  and  _80
REMARK   34  A    between atoms: _79  and  _82
REMARK   35  A    between atoms: _82  and  _83
REMARK   36  A    between atoms: _83  and  _84
REMARK   37  A    between atoms: _84  and  _85
REMARK   38  A    between atoms: _85  and  _86
REMARK   39  A    between atoms: _90  and  _92
REMARK   40  A    between atoms: _92  and  _93
REMARK   41  A    between atoms: _92  and  _95
REMARK   42  A    between atoms: _95  and  _96
REMARK   43  A    between atoms: _99  and  _101
REMARK   44  A    between atoms: _101  and  _102
REMARK   45  A    between atoms: _101  and  _104
REMARK   46  A    between atoms: _104  and  _105
REMARK   47  A    between atoms: _110  and  _112
REMARK   48  A    between atoms: _112  and  _113
REMARK   49  A    between atoms: _112  and  _115
REMARK   50  A    between atoms: _115  and  _116
REMARK   51  A    between atoms: _116  and  _117
REMARK   52  A    between atoms: _117  and  _118
REMARK   53  A    between atoms: _127  and  _129
REMARK   54  A    between atoms: _129  and  _130
REMARK   55  A    between atoms: _129  and  _132
REMARK   56  A    between atoms: _132  and  _133
REMARK   57  A    between atoms: _138  and  _139
REMARK   58  A    between atoms: _141  and  _143
REMARK   59  A    between atoms: _143  and  _144
REMARK   60  A    between atoms: _143  and  _146
REMARK   61  A    between atoms: _146  and  _147
REMARK   62  A    between atoms: _150  and  _152
REMARK   63  A    between atoms: _152  and  _153
REMARK   64  A    between atoms: _152  and  _155
REMARK   65  A    between atoms: _155  and  _156
REMARK   66  A    between atoms: _159  and  _161
REMARK   67  A    between atoms: _161  and  _162
REMARK   68  A    between atoms: _161  and  _164
REMARK   69  A    between atoms: _164  and  _165
REMARK   70  A    between atoms: _167  and  _169
REMARK   71  A    between atoms: _169  and  _170
REMARK   72  A    between atoms: _169  and  _172
REMARK   73  A    between atoms: _172  and  _173
REMARK   74  A    between atoms: _173  and  _174
REMARK   75  A    between atoms: _176  and  _178
REMARK   76  A    between atoms: _178  and  _179
REMARK   77  A    between atoms: _178  and  _181
REMARK   78  A    between atoms: _181  and  _182
REMARK   79  A    between atoms: _182  and  _183
REMARK   80  A    between atoms: _185  and  _187
REMARK   81  A    between atoms: _187  and  _188
REMARK   82  A    between atoms: _187  and  _190
REMARK   83  A    between atoms: _190  and  _191
REMARK   84  A    between atoms: _191  and  _192
REMARK   85  A    between atoms: _192  and  _193
REMARK   86  A    between atoms: _193  and  _194
REMARK   87  A    between atoms: _198  and  _200
REMARK   88  A    between atoms: _200  and  _201
REMARK   89  A    between atoms: _200  and  _203
REMARK   90  A    between atoms: _203  and  _204
REMARK   91  A    between atoms: _204  and  _205
REMARK   92  A    between atoms: _208  and  _210
REMARK   93  A    between atoms: _210  and  _211
REMARK   94  A    between atoms: _210  and  _213
REMARK   95  A    between atoms: _213  and  _214
REMARK   96  A    between atoms: _214  and  _215
REMARK   97  A    between atoms: _218  and  _220
REMARK   98  A    between atoms: _220  and  _221
REMARK   99  A    between atoms: _220  and  _223
REMARK  100  A    between atoms: _223  and  _224
REMARK  101  A    between atoms: _224  and  _225
REMARK  102  A    between atoms: _227  and  _229
REMARK  103  A    between atoms: _229  and  _230
REMARK  104  A    between atoms: _229  and  _232
REMARK  105  A    between atoms: _232  and  _233
REMARK  106  A    between atoms: _233  and  _234
REMARK  107  A    between atoms: _237  and  _239
REMARK  108  A    between atoms: _239  and  _240
REMARK  109  A    between atoms: _239  and  _242
REMARK  110  A    between atoms: _244  and  _246
REMARK  111  A    between atoms: _246  and  _247
REMARK  112  A    between atoms: _246  and  _249
REMARK  113  A    between atoms: _249  and  _250
REMARK  114  A    between atoms: _252  and  _254
REMARK  115  A    between atoms: _254  and  _255
REMARK  116  A    between atoms: _257  and  _259
REMARK  117  A    between atoms: _259  and  _260
REMARK  118  A    between atoms: _259  and  _262
REMARK  119  A    between atoms: _262  and  _263
REMARK  120  A    between atoms: _266  and  _268
REMARK  121  A    between atoms: _268  and  _269
REMARK  122  A    between atoms: _268  and  _271
REMARK  123  A    between atoms: _271  and  _272
REMARK  124  A    between atoms: _277  and  _278
REMARK  125  A    between atoms: _280  and  _282
REMARK  126  A    between atoms: _282  and  _283
REMARK  127  A    between atoms: _282  and  _285
REMARK  128  A    between atoms: _285  and  _286
REMARK  129  A    between atoms: _288  and  _290
REMARK  130  A    between atoms: _290  and  _291
REMARK  131  A    between atoms: _290  and  _293
REMARK  132  A    between atoms: _293  and  _294
REMARK  133  A    between atoms: _297  and  _299
REMARK  134  A    between atoms: _299  and  _300
REMARK  135  A    between atoms: _299  and  _302
REMARK  136  A    between atoms: _302  and  _303
REMARK  137  A    between atoms: _305  and  _307
REMARK  138  A    between atoms: _307  and  _308
REMARK  139  A    between atoms: _307  and  _310
REMARK  140  A    between atoms: _310  and  _311
REMARK  141  A    between atoms: _316  and  _318
REMARK  142  A    between atoms: _318  and  _319
REMARK  143  A    between atoms: _318  and  _321
REMARK  144  A    between atoms: _321  and  _322
REMARK  145  A    between atoms: _325  and  _327
REMARK  146  A    between atoms: _327  and  _328
REMARK  147  A    between atoms: _327  and  _330
REMARK  148  A    between atoms: _330  and  _331
REMARK  149  A    between atoms: _331  and  _332
REMARK  150  A    between atoms: _335  and  _337
REMARK  151  A    between atoms: _337  and  _338
REMARK  152  A    between atoms: _337  and  _340
REMARK  153  A    between atoms: _340  and  _341
REMARK  154  A    between atoms: _341  and  _342
REMARK  155  A    between atoms: _342  and  _343
REMARK  156  A    between atoms: _352  and  _354
REMARK  157  A    between atoms: _354  and  _355
REMARK  158  A    between atoms: _354  and  _357
REMARK  159  A    between atoms: _357  and  _358
REMARK  160  A    between atoms: _361  and  _363
REMARK  161  A    between atoms: _363  and  _364
REMARK  162  A    between atoms: _363  and  _366
REMARK  163  A    between atoms: _366  and  _367
REMARK  164  A    between atoms: _372  and  _374
REMARK  165  A    between atoms: _374  and  _375
REMARK  166  A    between atoms: _374  and  _377
REMARK  167  A    between atoms: _377  and  _378
REMARK  168  A    between atoms: _378  and  _379
REMARK  169  A    between atoms: _379  and  _380
REMARK  170  A    between atoms: _380  and  _381
REMARK  171  A    between atoms: _385  and  _387
REMARK  172  A    between atoms: _387  and  _388
REMARK  173  A    between atoms: _387  and  _390
REMARK  174  A    between atoms: _390  and  _391
REMARK                            x       y       z     vdW  Elec       q    Type
REMARK                         _______ _______ _______ _____ _____    ______ ____
ROOT
ATOM      1  O   HOH     1     -29.337 -14.240  23.273  0.00  0.00    +0.000 OA
ENDROOT
TORSDOF 0
REMARK  Name = ../refined-set-2016/3c2r/3c2r_pocket.pdb
REMARK  174 active torsions:
REMARK  status: ('A' for Active; 'I' for Inactive)
REMARK    1  A    between atoms: _1  and  _3
REMARK    2  A    between atoms: _3  and  _4
REMARK    3  A    between atoms: _7  and  _9
REMARK    4  A    between atoms: _9  and  _10
REMARK    5  A    between atoms: _12  and  _14
REMARK    6  A    between atoms: _14  and  _15
REMARK    7  A    between atoms: _14  and  _17
REMARK    8  A    between atoms: _17  and  _18
REMARK    9  A    between atoms: _21  and  _23
REMARK   10  A    between atoms: _23  and  _24
REMARK   11  A    between atoms: _23  and  _26
REMARK   12  A    between atoms: _26  and  _27
REMARK   13  A    between atoms: _27  and  _28
REMARK   14  A    between atoms: _28  and  _29
REMARK   15  A    between atoms: _38  and  _40
REMARK   16  A    between atoms: _40  and  _41
REMARK   17  A    between atoms: _40  and  _43
REMARK   18  A    between atoms: _43  and  _44
REMARK   19  A    between atoms: _44  and  _45
REMARK   20  A    between atoms: _45  and  _46
REMARK   21  A    between atoms: _46  and  _47
REMARK   22  A    between atoms: _51  and  _53
REMARK   23  A    between atoms: _53  and  _54
REMARK   24  A    between atoms: _53  and  _56
REMARK   25  A    between atoms: _56  and  _57
REMARK   26  A    between atoms: _60  and  _62
REMARK   27  A    between atoms: _62  and  _63
REMARK   28  A    between atoms: _62  and  _65
REMARK   29  A    between atoms: _65  and  _66
REMARK   30  A    between atoms: _66  and  _67
REMARK   31  A    between atoms: _67  and  _68
REMARK   32  A    between atoms: _77  and  _79
REMARK   33  A    between atoms: _79  and  _80
REMARK   34  A    between atoms: _79  and  _82
REMARK   35  A    between atoms: _82  and  _83
REMARK   36  A    between atoms: _83  and  _84
REMARK   37  A    between atoms: _84  and  _85
REMARK   38  A    between atoms: _85  and  _86
REMARK   39  A    between atoms: _90  and  _92
REMARK   40  A    between atoms: _92  and  _93
REMARK   41  A    between atoms: _92  and  _95
REMARK   42  A    between atoms: _95  and  _96
REMARK   43  A    between atoms: _99  and  _101
REMARK   44  A    between atoms: _101  and  _102
REMARK   45  A    between atoms: _101  and  _104
REMARK   46  A    between atoms: _104  and  _105
REMARK   47  A    between atoms: _110  and  _112
REMARK   48  A    between atoms: _112  and  _113
REMARK   49  A    between atoms: _112  and  _115
REMARK   50  A    between atoms: _115  and  _116
REMARK   51  A    between atoms: _116  and  _117
REMARK   52  A    between atoms: _117  and  _118
REMARK   53  A    between atoms: _127  and  _129
REMARK   54  A    between atoms: _129  and  _130
REMARK   55  A    between atoms: _129  and  _132
REMARK   56  A    between atoms: _132  and  _133
REMARK   57  A    between atoms: _138  and  _139
REMARK   58  A    between atoms: _141  and  _143
REMARK   59  A    between atoms: _143  and  _144
REMARK   60  A    between atoms: _143  and  _146
REMARK   61  A    between atoms: _146  and  _147
REMARK   62  A    between atoms: _150  and  _152
REMARK   63  A    between atoms: _152  and  _153
REMARK   64  A    between atoms: _152  and  _155
REMARK   65  A    between atoms: _155  and  _156
REMARK   66  A    between atoms: _159  and  _161
REMARK   67  A    between atoms: _161  and  _162
REMARK   68  A    between atoms: _161  and  _164
REMARK   69  A    between atoms: _164  and  _165
REMARK   70  A    between atoms: _167  and  _169
REMARK   71  A    between atoms: _169  and  _170
REMARK   72  A    between atoms: _169  and  _172
REMARK   73  A    between atoms: _172  and  _173
REMARK   74  A    between atoms: _173  and  _174
REMARK   75  A    between atoms: _176  and  _178
REMARK   76  A    between atoms: _178  and  _179
REMARK   77  A    between atoms: _178  and  _181
REMARK   78  A    between atoms: _181  and  _182
REMARK   79  A    between atoms: _182  and  _183
REMARK   80  A    between atoms: _185  and  _187
REMARK   81  A    between atoms: _187  and  _188
REMARK   82  A    between atoms: _187  and  _190
REMARK   83  A    between atoms: _190  and  _191
REMARK   84  A    between atoms: _191  and  _192
REMARK   85  A    between atoms: _192  and  _193
REMARK   86  A    between atoms: _193  and  _194
REMARK   87  A    between atoms: _198  and  _200
REMARK   88  A    between atoms: _200  and  _201
REMARK   89  A    between atoms: _200  and  _203
REMARK   90  A    between atoms: _203  and  _204
REMARK   91  A    between atoms: _204  and  _205
REMARK   92  A    between atoms: _208  and  _210
REMARK   93  A    between atoms: _210  and  _211
REMARK   94  A    between atoms: _210  and  _213
REMARK   95  A    between atoms: _213  and  _214
REMARK   96  A    between atoms: _214  and  _215
REMARK   97  A    between atoms: _218  and  _220
REMARK   98  A    between atoms: _220  and  _221
REMARK   99  A    between atoms: _220  and  _223
REMARK  100  A    between atoms: _223  and  _224
REMARK  101  A    between atoms: _224  and  _225
REMARK  102  A    between atoms: _227  and  _229
REMARK  103  A    between atoms: _229  and  _230
REMARK  104  A    between atoms: _229  and  _232
REMARK  105  A    between atoms: _232  and  _233
REMARK  106  A    between atoms: _233  and  _234
REMARK  107  A    between atoms: _237  and  _239
REMARK  108  A    between atoms: _239  and  _240
REMARK  109  A    between atoms: _239  and  _242
REMARK  110  A    between atoms: _244  and  _246
REMARK  111  A    between atoms: _246  and  _247
REMARK  112  A    between atoms: _246  and  _249
REMARK  113  A    between atoms: _249  and  _250
REMARK  114  A    between atoms: _252  and  _254
REMARK  115  A    between atoms: _254  and  _255
REMARK  116  A    between atoms: _257  and  _259
REMARK  117  A    between atoms: _259  and  _260
REMARK  118  A    between atoms: _259  and  _262
REMARK  119  A    between atoms: _262  and  _263
REMARK  120  A    between atoms: _266  and  _268
REMARK  121  A    between atoms: _268  and  _269
REMARK  122  A    between atoms: _268  and  _271
REMARK  123  A    between atoms: _271  and  _272
REMARK  124  A    between atoms: _277  and  _278
REMARK  125  A    between atoms: _280  and  _282
REMARK  126  A    between atoms: _282  and  _283
REMARK  127  A    between atoms: _282  and  _285
REMARK  128  A    between atoms: _285  and  _286
REMARK  129  A    between atoms: _288  and  _290
REMARK  130  A    between atoms: _290  and  _291
REMARK  131  A    between atoms: _290  and  _293
REMARK  132  A    between atoms: _293  and  _294
REMARK  133  A    between atoms: _297  and  _299
REMARK  134  A    between atoms: _299  and  _300
REMARK  135  A    between atoms: _299  and  _302
REMARK  136  A    between atoms: _302  and  _303
REMARK  137  A    between atoms: _305  and  _307
REMARK  138  A    between atoms: _307  and  _308
REMARK  139  A    between atoms: _307  and  _310
REMARK  140  A    between atoms: _310  and  _311
REMARK  141  A    between atoms: _316  and  _318
REMARK  142  A    between atoms: _318  and  _319
REMARK  143  A    between atoms: _318  and  _321
REMARK  144  A    between atoms: _321  and  _322
REMARK  145  A    between atoms: _325  and  _327
REMARK  146  A    between atoms: _327  and  _328
REMARK  147  A    between atoms: _327  and  _330
REMARK  148  A    between atoms: _330  and  _331
REMARK  149  A    between atoms: _331  and  _332
REMARK  150  A    between atoms: _335  and  _337
REMARK  151  A    between atoms: _337  and  _338
REMARK  152  A    between atoms: _337  and  _340
REMARK  153  A    between atoms: _340  and  _341
REMARK  154  A    between atoms: _341  and  _342
REMARK  155  A    between atoms: _342  and  _343
REMARK  156  A    between atoms: _352  and  _354
REMARK  157  A    between atoms: _354  and  _355
REMARK  158  A    between atoms: _354  and  _357
REMARK  159  A    between atoms: _357  and  _358
REMARK  160  A    between atoms: _361  and  _363
REMARK  161  A    between atoms: _363  and  _364
REMARK  162  A    between atoms: _363  and  _366
REMARK  163  A    between atoms: _366  and  _367
REMARK  164  A    between atoms: _372  and  _374
REMARK  165  A    between atoms: _374  and  _375
REMARK  166  A    between atoms: _374  and  _377
REMARK  167  A    between atoms: _377  and  _378
REMARK  168  A    between atoms: _378  and  _379
REMARK  169  A    between atoms: _379  and  _380
REMARK  170  A    between atoms: _380  and  _381
REMARK  171  A    between atoms: _385  and  _387
REMARK  172  A    between atoms: _387  and  _388
REMARK  173  A    between atoms: _387  and  _390
REMARK  174  A    between atoms: _390  and  _391
REMARK                            x       y       z     vdW  Elec       q    Type
REMARK                         _______ _______ _______ _____ _____    ______ ____
ROOT
ATOM      1  O   HOH     1     -16.616 -12.536  18.339  0.00  0.00    +0.000 OA
ENDROOT
TORSDOF 0
