REMARK  Name = ../refined-set-2016/4np2/4np2_pocket.pdb
REMARK  104 active torsions:
REMARK  status: ('A' for Active; 'I' for Inactive)
REMARK    1  A    between atoms: _1  and  _3
REMARK    2  A    between atoms: _3  and  _4
REMARK    3  A    between atoms: _3  and  _6
REMARK    4  A    between atoms: _6  and  _7
REMARK    5  A    between atoms: _10  and  _12
REMARK    6  A    between atoms: _12  and  _13
REMARK    7  A    between atoms: _12  and  _15
REMARK    8  A    between atoms: _15  and  _16
REMARK    9  A    between atoms: _21  and  _23
REMARK   10  A    between atoms: _23  and  _24
REMARK   11  A    between atoms: _23  and  _26
REMARK   12  A    between atoms: _29  and  _31
REMARK   13  A    between atoms: _31  and  _32
REMARK   14  A    between atoms: _31  and  _34
REMARK   15  A    between atoms: _34  and  _35
REMARK   16  A    between atoms: _38  and  _40
REMARK   17  A    between atoms: _40  and  _41
REMARK   18  A    between atoms: _40  and  _43
REMARK   19  A    between atoms: _45  and  _47
REMARK   20  A    between atoms: _47  and  _48
REMARK   21  A    between atoms: _47  and  _50
REMARK   22  A    between atoms: _50  and  _51
REMARK   23  A    between atoms: _56  and  _58
REMARK   24  A    between atoms: _58  and  _59
REMARK   25  A    between atoms: _58  and  _61
REMARK   26  A    between atoms: _64  and  _66
REMARK   27  A    between atoms: _66  and  _67
REMARK   28  A    between atoms: _66  and  _69
REMARK   29  A    between atoms: _69  and  _70
REMARK   30  A    between atoms: _70  and  _71
REMARK   31  A    between atoms: _74  and  _76
REMARK   32  A    between atoms: _76  and  _77
REMARK   33  A    between atoms: _76  and  _79
REMARK   34  A    between atoms: _79  and  _80
REMARK   35  A    between atoms: _80  and  _81
REMARK   36  A    between atoms: _81  and  _82
REMARK   37  A    between atoms: _82  and  _83
REMARK   38  A    between atoms: _87  and  _89
REMARK   39  A    between atoms: _89  and  _90
REMARK   40  A    between atoms: _89  and  _92
REMARK   41  A    between atoms: _92  and  _93
REMARK   42  A    between atoms: _98  and  _100
REMARK   43  A    between atoms: _100  and  _101
REMARK   44  A    between atoms: _103  and  _105
REMARK   45  A    between atoms: _105  and  _106
REMARK   46  A    between atoms: _105  and  _108
REMARK   47  A    between atoms: _108  and  _109
REMARK   48  A    between atoms: _109  and  _110
REMARK   49  A    between atoms: _110  and  _111
REMARK   50  A    between atoms: _120  and  _122
REMARK   51  A    between atoms: _122  and  _123
REMARK   52  A    between atoms: _122  and  _125
REMARK   53  A    between atoms: _125  and  _126
REMARK   54  A    between atoms: _131  and  _132
REMARK   55  A    between atoms: _134  and  _136
REMARK   56  A    between atoms: _136  and  _137
REMARK   57  A    between atoms: _136  and  _139
REMARK   58  A    between atoms: _139  and  _140
REMARK   59  A    between atoms: _143  and  _145
REMARK   60  A    between atoms: _145  and  _146
REMARK   61  A    between atoms: _145  and  _148
REMARK   62  A    between atoms: _150  and  _152
REMARK   63  A    between atoms: _152  and  _153
REMARK   64  A    between atoms: _152  and  _155
REMARK   65  A    between atoms: _155  and  _156
REMARK   66  A    between atoms: _156  and  _157
REMARK   67  A    between atoms: _157  and  _158
REMARK   68  A    between atoms: _167  and  _169
REMARK   69  A    between atoms: _169  and  _170
REMARK   70  A    between atoms: _169  and  _172
REMARK   71  A    between atoms: _172  and  _173
REMARK   72  A    between atoms: _176  and  _178
REMARK   73  A    between atoms: _178  and  _179
REMARK   74  A    between atoms: _178  and  _181
REMARK   75  A    between atoms: _181  and  _182
REMARK   76  A    between atoms: _185  and  _187
REMARK   77  A    between atoms: _187  and  _188
REMARK   78  A    between atoms: _187  and  _190
REMARK   79  A    between atoms: _193  and  _195
REMARK   80  A    between atoms: _195  and  _196
REMARK   81  A    between atoms: _195  and  _198
REMARK   82  A    between atoms: _198  and  _199
REMARK   83  A    between atoms: _204  and  _206
REMARK   84  A    between atoms: _206  and  _207
REMARK   85  A    between atoms: _206  and  _209
REMARK   86  A    between atoms: _209  and  _210
REMARK   87  A    between atoms: _210  and  _211
REMARK   88  A    between atoms: _211  and  _212
REMARK   89  A    between atoms: _221  and  _223
REMARK   90  A    between atoms: _223  and  _224
REMARK   91  A    between atoms: _223  and  _226
REMARK   92  A    between atoms: _226  and  _227
REMARK   93  A    between atoms: _230  and  _232
REMARK   94  A    between atoms: _232  and  _233
REMARK   95  A    between atoms: _235  and  _237
REMARK   96  A    between atoms: _237  and  _238
REMARK   97  A    between atoms: _237  and  _240
REMARK   98  A    between atoms: _240  and  _241
REMARK   99  A    between atoms: _244  and  _246
REMARK  100  A    between atoms: _246  and  _247
REMARK  101  A    between atoms: _246  and  _249
REMARK  102  A    between atoms: _249  and  _250
REMARK  103  A    between atoms: _250  and  _251
REMARK  104  A    between atoms: _251  and  _252
REMARK                            x       y       z     vdW  Elec       q    Type
REMARK                         _______ _______ _______ _____ _____    ______ ____
ROOT
ATOM      1  C   ASN A   2       7.989  -0.212  -0.884  0.00  0.00    +0.241 C 
ATOM      2  O   ASN A   2       7.189  -0.317   0.048  0.00  0.00    -0.273 OA
ATOM      3  N   VAL A   3       7.654  -0.434  -2.139  0.00  0.00    -0.297 N 
ATOM      4  H   VAL A   3       8.380  -0.377  -2.882  0.00  0.00    +0.150 HD
ENDROOT
BRANCH   3   5
ATOM      5  CA  VAL A   3       6.257  -0.764  -2.505  0.00  0.00    +0.149 C 
BRANCH   5   6
ATOM      6  C   VAL A   3       6.187  -2.078  -3.283  0.00  0.00    +0.241 C 
ATOM      7  N   THR A   4       5.057  -2.771  -3.136  0.00  0.00    -0.295 N 
ATOM      8  H   THR A   4       4.311  -2.375  -2.529  0.00  0.00    +0.150 HD
ATOM      9  O   VAL A   3       7.134  -2.436  -4.016  0.00  0.00    -0.273 OA
BRANCH   7  10
ATOM     10  CA  THR A   4       4.812  -4.054  -3.781  0.00  0.00    +0.176 C 
BRANCH  10  11
ATOM     11  C   THR A   4       3.898  -3.938  -4.996  0.00  0.00    +0.243 C 
ATOM     12  O   THR A   4       3.385  -2.877  -5.306  0.00  0.00    -0.273 OA
ATOM     13  N   CYS A   5       3.730  -5.064  -5.675  0.00  0.00    -0.297 N 
ATOM     14  H   CYS A   5       4.388  -5.850  -5.501  0.00  0.00    +0.150 HD
BRANCH  13  15
ATOM     15  CA  CYS A   5       2.651  -5.256  -6.668  0.00  0.00    +0.149 C 
BRANCH  15  16
ATOM     16  CB  CYS A   5       2.580  -6.738  -6.974  0.00  0.00    +0.096 C 
ATOM     17  SG  CYS A   5       4.033  -7.355  -7.839  0.00  0.00    -0.080 S 
ENDBRANCH  15  16
BRANCH  15  18
ATOM     18  C   CYS A   5       1.341  -4.930  -5.997  0.00  0.00    +0.228 C 
ATOM     19  O   CYS A   5       1.236  -5.069  -4.764  0.00  0.00    -0.286 OA
ENDBRANCH  15  18
ENDBRANCH  13  15
ENDBRANCH  10  11
BRANCH  10  20
ATOM     20  CB  THR A   4       4.151  -5.054  -2.804  0.00  0.00    +0.137 C 
ATOM     21  CG2 THR A   4       4.982  -5.184  -1.529  0.00  0.00    +0.034 C 
BRANCH  20  22
ATOM     22  OG1 THR A   4       2.810  -4.624  -2.488  0.00  0.00    -0.382 OA
ATOM     23  HG1 THR A   4       2.275  -4.579  -3.320  0.00  0.00    +0.210 HD
ENDBRANCH  20  22
ENDBRANCH  10  20
ENDBRANCH   7  10
ENDBRANCH   5   6
BRANCH   5  24
ATOM     24  CB  VAL A   3       5.625   0.345  -3.364  0.00  0.00    +0.027 C 
ATOM     25  CG2 VAL A   3       5.685   1.705  -2.616  0.00  0.00    +0.002 C 
ATOM     26  CG1 VAL A   3       6.403   0.499  -4.691  0.00  0.00    +0.002 C 
ENDBRANCH   5  24
ENDBRANCH   3   5
BRANCH   1  27
ATOM     27  CA  ASN A   2       9.417   0.230  -0.606  0.00  0.00    +0.158 C 
BRANCH  27  29
ATOM     28  C   LEU A   1       9.266   2.675  -0.471  0.00  0.00    +0.238 C 
ATOM     29  N   ASN A   2       9.380   1.501   0.138  0.00  0.00    -0.297 N 
ATOM     30  H   ASN A   2       9.445   1.478   1.176  0.00  0.00    +0.150 HD
ATOM     31  O   LEU A   1       9.238   2.788  -1.696  0.00  0.00    -0.274 OA
BRANCH  28  32
ATOM     32  CA  LEU A   1       9.200   3.906   0.413  0.00  0.00    +0.145 C 
BRANCH  32  33
ATOM     33  N   LEU A   1      10.448   4.642   0.255  0.00  0.00    -0.238 NA
ATOM     34  H   LEU A   1      10.697   5.020  -0.681  0.00  0.00    +0.142 HD
ENDBRANCH  32  33
BRANCH  32  35
ATOM     35  CB  LEU A   1       8.003   4.805   0.044  0.00  0.00    +0.026 C 
BRANCH  35  36
ATOM     36  CG  LEU A   1       7.882   6.076   0.875  0.00  0.00    +0.002 C 
ATOM     37  CD2 LEU A   1       7.575   5.786   2.374  0.00  0.00    +0.000 C 
ATOM     38  CD1 LEU A   1       6.808   6.978   0.278  0.00  0.00    +0.000 C 
ENDBRANCH  35  36
ENDBRANCH  32  35
ENDBRANCH  28  32
ENDBRANCH  27  29
BRANCH  27  39
ATOM     39  CB  ASN A   2      10.148  -0.873   0.188  0.00  0.00    +0.114 C 
BRANCH  39  40
ATOM     40  CG  ASN A   2      11.603  -0.553   0.442  0.00  0.00    +0.222 C 
ATOM     41  ND2 ASN A   2      12.167  -1.184   1.453  0.00  0.00    -0.329 N 
ATOM     42 HD21 ASN A   2      11.622  -1.880   2.001  0.00  0.00    +0.145 HD
ATOM     43 HD22 ASN A   2      13.157  -0.986   1.703  0.00  0.00    +0.145 HD
ATOM     44  OD1 ASN A   2      12.201   0.272  -0.231  0.00  0.00    -0.275 OA
ENDBRANCH  39  40
ENDBRANCH  27  39
ENDBRANCH   1  27
TORSDOF 18
REMARK  Name = ../refined-set-2016/4np2/4np2_pocket.pdb
REMARK  104 active torsions:
REMARK  status: ('A' for Active; 'I' for Inactive)
REMARK    1  A    between atoms: _1  and  _3
REMARK    2  A    between atoms: _3  and  _4
REMARK    3  A    between atoms: _3  and  _6
REMARK    4  A    between atoms: _6  and  _7
REMARK    5  A    between atoms: _10  and  _12
REMARK    6  A    between atoms: _12  and  _13
REMARK    7  A    between atoms: _12  and  _15
REMARK    8  A    between atoms: _15  and  _16
REMARK    9  A    between atoms: _21  and  _23
REMARK   10  A    between atoms: _23  and  _24
REMARK   11  A    between atoms: _23  and  _26
REMARK   12  A    between atoms: _29  and  _31
REMARK   13  A    between atoms: _31  and  _32
REMARK   14  A    between atoms: _31  and  _34
REMARK   15  A    between atoms: _34  and  _35
REMARK   16  A    between atoms: _38  and  _40
REMARK   17  A    between atoms: _40  and  _41
REMARK   18  A    between atoms: _40  and  _43
REMARK   19  A    between atoms: _45  and  _47
REMARK   20  A    between atoms: _47  and  _48
REMARK   21  A    between atoms: _47  and  _50
REMARK   22  A    between atoms: _50  and  _51
REMARK   23  A    between atoms: _56  and  _58
REMARK   24  A    between atoms: _58  and  _59
REMARK   25  A    between atoms: _58  and  _61
REMARK   26  A    between atoms: _64  and  _66
REMARK   27  A    between atoms: _66  and  _67
REMARK   28  A    between atoms: _66  and  _69
REMARK   29  A    between atoms: _69  and  _70
REMARK   30  A    between atoms: _70  and  _71
REMARK   31  A    between atoms: _74  and  _76
REMARK   32  A    between atoms: _76  and  _77
REMARK   33  A    between atoms: _76  and  _79
REMARK   34  A    between atoms: _79  and  _80
REMARK   35  A    between atoms: _80  and  _81
REMARK   36  A    between atoms: _81  and  _82
REMARK   37  A    between atoms: _82  and  _83
REMARK   38  A    between atoms: _87  and  _89
REMARK   39  A    between atoms: _89  and  _90
REMARK   40  A    between atoms: _89  and  _92
REMARK   41  A    between atoms: _92  and  _93
REMARK   42  A    between atoms: _98  and  _100
REMARK   43  A    between atoms: _100  and  _101
REMARK   44  A    between atoms: _103  and  _105
REMARK   45  A    between atoms: _105  and  _106
REMARK   46  A    between atoms: _105  and  _108
REMARK   47  A    between atoms: _108  and  _109
REMARK   48  A    between atoms: _109  and  _110
REMARK   49  A    between atoms: _110  and  _111
REMARK   50  A    between atoms: _120  and  _122
REMARK   51  A    between atoms: _122  and  _123
REMARK   52  A    between atoms: _122  and  _125
REMARK   53  A    between atoms: _125  and  _126
REMARK   54  A    between atoms: _131  and  _132
REMARK   55  A    between atoms: _134  and  _136
REMARK   56  A    between atoms: _136  and  _137
REMARK   57  A    between atoms: _136  and  _139
REMARK   58  A    between atoms: _139  and  _140
REMARK   59  A    between atoms: _143  and  _145
REMARK   60  A    between atoms: _145  and  _146
REMARK   61  A    between atoms: _145  and  _148
REMARK   62  A    between atoms: _150  and  _152
REMARK   63  A    between atoms: _152  and  _153
REMARK   64  A    between atoms: _152  and  _155
REMARK   65  A    between atoms: _155  and  _156
REMARK   66  A    between atoms: _156  and  _157
REMARK   67  A    between atoms: _157  and  _158
REMARK   68  A    between atoms: _167  and  _169
REMARK   69  A    between atoms: _169  and  _170
REMARK   70  A    between atoms: _169  and  _172
REMARK   71  A    between atoms: _172  and  _173
REMARK   72  A    between atoms: _176  and  _178
REMARK   73  A    between atoms: _178  and  _179
REMARK   74  A    between atoms: _178  and  _181
REMARK   75  A    between atoms: _181  and  _182
REMARK   76  A    between atoms: _185  and  _187
REMARK   77  A    between atoms: _187  and  _188
REMARK   78  A    between atoms: _187  and  _190
REMARK   79  A    between atoms: _193  and  _195
REMARK   80  A    between atoms: _195  and  _196
REMARK   81  A    between atoms: _195  and  _198
REMARK   82  A    between atoms: _198  and  _199
REMARK   83  A    between atoms: _204  and  _206
REMARK   84  A    between atoms: _206  and  _207
REMARK   85  A    between atoms: _206  and  _209
REMARK   86  A    between atoms: _209  and  _210
REMARK   87  A    between atoms: _210  and  _211
REMARK   88  A    between atoms: _211  and  _212
REMARK   89  A    between atoms: _221  and  _223
REMARK   90  A    between atoms: _223  and  _224
REMARK   91  A    between atoms: _223  and  _226
REMARK   92  A    between atoms: _226  and  _227
REMARK   93  A    between atoms: _230  and  _232
REMARK   94  A    between atoms: _232  and  _233
REMARK   95  A    between atoms: _235  and  _237
REMARK   96  A    between atoms: _237  and  _238
REMARK   97  A    between atoms: _237  and  _240
REMARK   98  A    between atoms: _240  and  _241
REMARK   99  A    between atoms: _244  and  _246
REMARK  100  A    between atoms: _246  and  _247
REMARK  101  A    between atoms: _246  and  _249
REMARK  102  A    between atoms: _249  and  _250
REMARK  103  A    between atoms: _250  and  _251
REMARK  104  A    between atoms: _251  and  _252
REMARK                            x       y       z     vdW  Elec       q    Type
REMARK                         _______ _______ _______ _____ _____    ______ ____
ROOT
ATOM      1  CA  ASN A   5      13.136   2.755   5.004  0.00  0.00    +0.158 C 
ENDROOT
BRANCH   1   2
ATOM      2  C   ASN A   5      13.482   1.285   5.299  0.00  0.00    +0.241 C 
ATOM      3  O   ASN A   5      14.491   1.011   5.949  0.00  0.00    -0.273 OA
ATOM      4  N   GLY A   6      12.647   0.359   4.828  0.00  0.00    -0.295 N 
ATOM      5  H   GLY A   6      11.780   0.668   4.345  0.00  0.00    +0.150 HD
BRANCH   4   6
ATOM      6  CA  GLY A   6      12.902  -1.068   4.964  0.00  0.00    +0.176 C 
BRANCH   6   7
ATOM      7  C   GLY A   6      12.851  -1.624   6.383  0.00  0.00    +0.243 C 
ATOM      8  N   ARG A   7      12.159  -0.942   7.289  0.00  0.00    -0.297 N 
ATOM      9  H   ARG A   7      11.713  -0.044   7.014  0.00  0.00    +0.150 HD
ATOM     10  O   GLY A   6      13.442  -2.673   6.649  0.00  0.00    -0.273 OA
BRANCH   8  11
ATOM     11  CA  ARG A   7      12.008  -1.421   8.664  0.00  0.00    +0.149 C 
BRANCH  11  12
ATOM     12  C   ARG A   7      10.645  -0.974   9.208  0.00  0.00    +0.241 C 
ATOM     13  N   TYR A   8      10.142  -1.656  10.222  0.00  0.00    -0.298 N 
ATOM     14  H   TYR A   8      10.636  -2.496  10.584  0.00  0.00    +0.150 HD
ATOM     15  O   ARG A   7      10.062  -0.008   8.722  0.00  0.00    -0.273 OA
BRANCH  13  16
ATOM     16  CA  TYR A   8       8.884  -1.221  10.833  0.00  0.00    +0.141 C 
BRANCH  16  17
ATOM     17  C   TYR A   8       9.041   0.171  11.420  0.00  0.00    +0.227 C 
ATOM     18  O   TYR A   8       9.790   0.345  12.389  0.00  0.00    -0.286 OA
ENDBRANCH  16  17
BRANCH  16  19
ATOM     19  CB  TYR A   8       8.477  -2.198  11.950  0.00  0.00    +0.054 C 
BRANCH  19  20
ATOM     20  CG  TYR A   8       8.036  -3.553  11.452  0.00  0.00    -0.020 A 
ATOM     21  CD2 TYR A   8       8.626  -4.722  11.944  0.00  0.00    -0.001 A 
ATOM     22  CE2 TYR A   8       8.200  -5.985  11.514  0.00  0.00    +0.036 A 
ATOM     23  CZ  TYR A   8       7.171  -6.071  10.569  0.00  0.00    +0.134 A 
ATOM     24  CE1 TYR A   8       6.588  -4.938  10.073  0.00  0.00    +0.036 A 
ATOM     25  CD1 TYR A   8       6.998  -3.677  10.516  0.00  0.00    -0.001 A 
BRANCH  23  26
ATOM     26  OH  TYR A   8       6.748  -7.319  10.154  0.00  0.00    -0.506 OA
ATOM     27  HH  TYR A   8       7.507  -7.803   9.742  0.00  0.00    +0.292 HD
ENDBRANCH  23  26
ENDBRANCH  19  20
ENDBRANCH  16  19
ENDBRANCH  13  16
ENDBRANCH  11  12
BRANCH  11  28
ATOM     28  CB  ARG A   7      13.163  -0.887   9.545  0.00  0.00    +0.033 C 
BRANCH  28  29
ATOM     29  CG  ARG A   7      13.275   0.642   9.591  0.00  0.00    +0.045 C 
BRANCH  29  30
ATOM     30  CD  ARG A   7      14.561   1.092  10.306  0.00  0.00    +0.174 C 
BRANCH  30  31
ATOM     31  NE  ARG A   7      14.579   2.548  10.522  0.00  0.00    -0.265 N 
ATOM     32  HE  ARG A   7      13.960   2.925  11.268  0.00  0.00    +0.259 HD
ATOM     33  CZ  ARG A   7      15.322   3.428   9.842  0.00  0.00    +0.342 C 
ATOM     34  NH2 ARG A   7      15.244   4.720  10.143  0.00  0.00    -0.292 N 
ATOM     35 HH21 ARG A   7      14.609   5.040  10.902  0.00  0.00    +0.255 HD
ATOM     36 HH22 ARG A   7      15.818   5.411   9.620  0.00  0.00    +0.255 HD
ATOM     37  NH1 ARG A   7      16.141   3.043   8.858  0.00  0.00    -0.292 N 
ATOM     38 HH11 ARG A   7      16.212   2.037   8.604  0.00  0.00    +0.255 HD
ATOM     39 HH12 ARG A   7      16.707   3.750   8.346  0.00  0.00    +0.255 HD
ENDBRANCH  30  31
ENDBRANCH  29  30
ENDBRANCH  28  29
ENDBRANCH  11  28
ENDBRANCH   8  11
ENDBRANCH   6   7
ENDBRANCH   4   6
ENDBRANCH   1   2
BRANCH   1  42
ATOM     40  C   LYS A   4      10.739   2.650   5.592  0.00  0.00    +0.241 C 
ATOM     41  O   LYS A   4      10.939   2.106   6.677  0.00  0.00    -0.273 OA
ATOM     42  N   ASN A   5      11.715   3.007   4.747  0.00  0.00    -0.297 N 
ATOM     43  H   ASN A   5      11.451   3.488   3.863  0.00  0.00    +0.150 HD
BRANCH  40  44
ATOM     44  CA  LYS A   4       9.324   2.973   5.152  0.00  0.00    +0.149 C 
BRANCH  44  46
ATOM     45  C   GLU A   3       8.301   1.101   4.003  0.00  0.00    +0.241 C 
ATOM     46  N   LYS A   4       8.491   1.765   5.140  0.00  0.00    -0.297 N 
ATOM     47  H   LYS A   4       8.050   1.428   6.019  0.00  0.00    +0.150 HD
ATOM     48  O   GLU A   3       8.817   1.452   2.942  0.00  0.00    -0.273 OA
BRANCH  45  49
ATOM     49  CA  GLU A   3       7.450  -0.164   4.035  0.00  0.00    +0.149 C 
BRANCH  49  52
ATOM     50  C   VAL A   2       5.175  -0.110   3.047  0.00  0.00    +0.241 C 
ATOM     51  O   VAL A   2       4.578  -0.158   4.127  0.00  0.00    -0.273 OA
ATOM     52  N   GLU A   3       6.504  -0.101   2.914  0.00  0.00    -0.297 N 
ATOM     53  H   GLU A   3       6.895  -0.046   1.952  0.00  0.00    +0.150 HD
BRANCH  50  54
ATOM     54  CA  VAL A   2       4.398  -0.005   1.754  0.00  0.00    +0.148 C 
BRANCH  54  56
ATOM     55  C   HIS A   1       3.269  -1.925   0.735  0.00  0.00    +0.239 C 
ATOM     56  N   VAL A   2       3.389  -1.060   1.744  0.00  0.00    -0.297 N 
ATOM     57  H   VAL A   2       2.740  -1.140   2.553  0.00  0.00    +0.150 HD
ATOM     58  O   HIS A   1       3.923  -1.833  -0.317  0.00  0.00    -0.274 OA
BRANCH  55  59
ATOM     59  CA  HIS A   1       2.212  -3.040   0.905  0.00  0.00    +0.151 C 
BRANCH  59  60
ATOM     60  N   HIS A   1       1.477  -3.195  -0.368  0.00  0.00    -0.238 NA
ATOM     61  H   HIS A   1       1.956  -3.654  -1.169  0.00  0.00    +0.142 HD
ENDBRANCH  59  60
BRANCH  59  62
ATOM     62  CB  HIS A   1       2.831  -4.397   1.266  0.00  0.00    +0.074 C 
BRANCH  62  63
ATOM     63  CG  HIS A   1       3.835  -4.352   2.369  0.00  0.00    +0.082 A 
ATOM     64  CD2 HIS A   1       3.702  -4.115   3.695  0.00  0.00    +0.115 A 
ATOM     65  NE2 HIS A   1       4.955  -4.225   4.258  0.00  0.00    -0.221 NA
ATOM     66  CE1 HIS A   1       5.825  -4.534   3.312  0.00  0.00    +0.199 A 
ATOM     67  ND1 HIS A   1       5.175  -4.621   2.161  0.00  0.00    -0.227 NA
ENDBRANCH  62  63
ENDBRANCH  59  62
ENDBRANCH  55  59
ENDBRANCH  54  56
BRANCH  54  68
ATOM     68  CB  VAL A   2       3.773   1.409   1.717  0.00  0.00    +0.027 C 
ATOM     69  CG2 VAL A   2       4.902   2.486   1.542  0.00  0.00    +0.002 C 
ATOM     70  CG1 VAL A   2       2.741   1.523   0.575  0.00  0.00    +0.002 C 
ENDBRANCH  54  68
ENDBRANCH  50  54
ENDBRANCH  49  52
BRANCH  49  71
ATOM     71  CB  GLU A   3       8.305  -1.373   3.730  0.00  0.00    +0.041 C 
BRANCH  71  72
ATOM     72  CG  GLU A   3       9.484  -1.667   4.519  0.00  0.00    +0.116 C 
BRANCH  72  73
ATOM     73  CD  GLU A   3       9.999  -3.001   4.051  0.00  0.00    +0.365 C 
ATOM     74  OE2 GLU A   3       9.543  -4.002   4.626  0.00  0.00    -0.246 OA
ATOM     75  OE1 GLU A   3      10.770  -3.052   3.041  0.00  0.00    -0.246 OA
ENDBRANCH  72  73
ENDBRANCH  71  72
ENDBRANCH  49  71
ENDBRANCH  45  49
ENDBRANCH  44  46
BRANCH  44  76
ATOM     76  CB  LYS A   4       8.711   4.026   6.063  0.00  0.00    +0.029 C 
BRANCH  76  77
ATOM     77  CG  LYS A   4       9.426   5.354   6.097  0.00  0.00    +0.000 C 
BRANCH  77  78
ATOM     78  CD  LYS A   4       8.846   6.150   7.221  0.00  0.00    -0.024 C 
BRANCH  78  79
ATOM     79  CE  LYS A   4       9.538   7.498   7.340  0.00  0.00    -0.086 C 
BRANCH  79  80
ATOM     80  NZ  LYS A   4       9.031   8.176   8.570  0.00  0.00    +0.380 N 
ATOM     81  HZ1 LYS A   4       9.245   7.589   9.401  0.00  0.00    -0.089 HD
ATOM     82  HZ2 LYS A   4       9.494   9.102   8.669  0.00  0.00    -0.089 HD
ATOM     83  HZ3 LYS A   4       8.002   8.307   8.493  0.00  0.00    -0.089 HD
ENDBRANCH  79  80
ENDBRANCH  78  79
ENDBRANCH  77  78
ENDBRANCH  76  77
ENDBRANCH  44  76
ENDBRANCH  40  44
ENDBRANCH   1  42
BRANCH   1  84
ATOM     84  CB  ASN A   5      13.627   3.704   6.115  0.00  0.00    +0.114 C 
BRANCH  84  85
ATOM     85  CG  ASN A   5      13.570   5.169   5.689  0.00  0.00    +0.222 C 
ATOM     86  ND2 ASN A   5      13.163   6.055   6.609  0.00  0.00    -0.329 N 
ATOM     87 HD21 ASN A   5      12.920   5.734   7.568  0.00  0.00    +0.145 HD
ATOM     88 HD22 ASN A   5      13.090   7.063   6.364  0.00  0.00    +0.145 HD
ATOM     89  OD1 ASN A   5      13.872   5.493   4.533  0.00  0.00    -0.275 OA
ENDBRANCH  84  85
ENDBRANCH   1  84
TORSDOF 36
REMARK  Name = ../refined-set-2016/4np2/4np2_pocket.pdb
REMARK  104 active torsions:
REMARK  status: ('A' for Active; 'I' for Inactive)
REMARK    1  A    between atoms: _1  and  _3
REMARK    2  A    between atoms: _3  and  _4
REMARK    3  A    between atoms: _3  and  _6
REMARK    4  A    between atoms: _6  and  _7
REMARK    5  A    between atoms: _10  and  _12
REMARK    6  A    between atoms: _12  and  _13
REMARK    7  A    between atoms: _12  and  _15
REMARK    8  A    between atoms: _15  and  _16
REMARK    9  A    between atoms: _21  and  _23
REMARK   10  A    between atoms: _23  and  _24
REMARK   11  A    between atoms: _23  and  _26
REMARK   12  A    between atoms: _29  and  _31
REMARK   13  A    between atoms: _31  and  _32
REMARK   14  A    between atoms: _31  and  _34
REMARK   15  A    between atoms: _34  and  _35
REMARK   16  A    between atoms: _38  and  _40
REMARK   17  A    between atoms: _40  and  _41
REMARK   18  A    between atoms: _40  and  _43
REMARK   19  A    between atoms: _45  and  _47
REMARK   20  A    between atoms: _47  and  _48
REMARK   21  A    between atoms: _47  and  _50
REMARK   22  A    between atoms: _50  and  _51
REMARK   23  A    between atoms: _56  and  _58
REMARK   24  A    between atoms: _58  and  _59
REMARK   25  A    between atoms: _58  and  _61
REMARK   26  A    between atoms: _64  and  _66
REMARK   27  A    between atoms: _66  and  _67
REMARK   28  A    between atoms: _66  and  _69
REMARK   29  A    between atoms: _69  and  _70
REMARK   30  A    between atoms: _70  and  _71
REMARK   31  A    between atoms: _74  and  _76
REMARK   32  A    between atoms: _76  and  _77
REMARK   33  A    between atoms: _76  and  _79
REMARK   34  A    between atoms: _79  and  _80
REMARK   35  A    between atoms: _80  and  _81
REMARK   36  A    between atoms: _81  and  _82
REMARK   37  A    between atoms: _82  and  _83
REMARK   38  A    between atoms: _87  and  _89
REMARK   39  A    between atoms: _89  and  _90
REMARK   40  A    between atoms: _89  and  _92
REMARK   41  A    between atoms: _92  and  _93
REMARK   42  A    between atoms: _98  and  _100
REMARK   43  A    between atoms: _100  and  _101
REMARK   44  A    between atoms: _103  and  _105
REMARK   45  A    between atoms: _105  and  _106
REMARK   46  A    between atoms: _105  and  _108
REMARK   47  A    between atoms: _108  and  _109
REMARK   48  A    between atoms: _109  and  _110
REMARK   49  A    between atoms: _110  and  _111
REMARK   50  A    between atoms: _120  and  _122
REMARK   51  A    between atoms: _122  and  _123
REMARK   52  A    between atoms: _122  and  _125
REMARK   53  A    between atoms: _125  and  _126
REMARK   54  A    between atoms: _131  and  _132
REMARK   55  A    between atoms: _134  and  _136
REMARK   56  A    between atoms: _136  and  _137
REMARK   57  A    between atoms: _136  and  _139
REMARK   58  A    between atoms: _139  and  _140
REMARK   59  A    between atoms: _143  and  _145
REMARK   60  A    between atoms: _145  and  _146
REMARK   61  A    between atoms: _145  and  _148
REMARK   62  A    between atoms: _150  and  _152
REMARK   63  A    between atoms: _152  and  _153
REMARK   64  A    between atoms: _152  and  _155
REMARK   65  A    between atoms: _155  and  _156
REMARK   66  A    between atoms: _156  and  _157
REMARK   67  A    between atoms: _157  and  _158
REMARK   68  A    between atoms: _167  and  _169
REMARK   69  A    between atoms: _169  and  _170
REMARK   70  A    between atoms: _169  and  _172
REMARK   71  A    between atoms: _172  and  _173
REMARK   72  A    between atoms: _176  and  _178
REMARK   73  A    between atoms: _178  and  _179
REMARK   74  A    between atoms: _178  and  _181
REMARK   75  A    between atoms: _181  and  _182
REMARK   76  A    between atoms: _185  and  _187
REMARK   77  A    between atoms: _187  and  _188
REMARK   78  A    between atoms: _187  and  _190
REMARK   79  A    between atoms: _193  and  _195
REMARK   80  A    between atoms: _195  and  _196
REMARK   81  A    between atoms: _195  and  _198
REMARK   82  A    between atoms: _198  and  _199
REMARK   83  A    between atoms: _204  and  _206
REMARK   84  A    between atoms: _206  and  _207
REMARK   85  A    between atoms: _206  and  _209
REMARK   86  A    between atoms: _209  and  _210
REMARK   87  A    between atoms: _210  and  _211
REMARK   88  A    between atoms: _211  and  _212
REMARK   89  A    between atoms: _221  and  _223
REMARK   90  A    between atoms: _223  and  _224
REMARK   91  A    between atoms: _223  and  _226
REMARK   92  A    between atoms: _226  and  _227
REMARK   93  A    between atoms: _230  and  _232
REMARK   94  A    between atoms: _232  and  _233
REMARK   95  A    between atoms: _235  and  _237
REMARK   96  A    between atoms: _237  and  _238
REMARK   97  A    between atoms: _237  and  _240
REMARK   98  A    between atoms: _240  and  _241
REMARK   99  A    between atoms: _244  and  _246
REMARK  100  A    between atoms: _246  and  _247
REMARK  101  A    between atoms: _246  and  _249
REMARK  102  A    between atoms: _249  and  _250
REMARK  103  A    between atoms: _250  and  _251
REMARK  104  A    between atoms: _251  and  _252
REMARK                            x       y       z     vdW  Elec       q    Type
REMARK                         _______ _______ _______ _____ _____    ______ ____
ROOT
ATOM      1  C   CYS A   2       5.974 -10.440   6.538  0.00  0.00    +0.242 C 
ATOM      2  O   CYS A   2       6.829 -10.529   7.429  0.00  0.00    -0.273 OA
ATOM      3  N   ARG A   3       5.189  -9.369   6.385  0.00  0.00    -0.298 N 
ATOM      4  H   ARG A   3       4.468  -9.377   5.636  0.00  0.00    +0.150 HD
ENDROOT
BRANCH   1   5
ATOM      5  CA  CYS A   2       5.774 -11.585   5.543  0.00  0.00    +0.160 C 
BRANCH   5   7
ATOM      6  C   THR A   1       4.139 -11.421   3.749  0.00  0.00    +0.241 C 
ATOM      7  N   CYS A   2       5.309 -11.059   4.274  0.00  0.00    -0.296 N 
ATOM      8  H   CYS A   2       5.905 -10.380   3.759  0.00  0.00    +0.150 HD
ATOM      9  O   THR A   1       3.416 -12.310   4.227  0.00  0.00    -0.274 OA
BRANCH   6  10
ATOM     10  CA  THR A   1       3.696 -10.666   2.511  0.00  0.00    +0.172 C 
BRANCH  10  11
ATOM     11  N   THR A   1       2.423 -11.294   2.093  0.00  0.00    -0.236 NA
ATOM     12  H   THR A   1       1.724 -11.563   2.814  0.00  0.00    +0.142 HD
ENDBRANCH  10  11
BRANCH  10  13
ATOM     13  CB  THR A   1       3.545  -9.162   2.900  0.00  0.00    +0.135 C 
ATOM     14  CG2 THR A   1       2.723  -8.357   1.878  0.00  0.00    +0.034 C 
BRANCH  13  15
ATOM     15  OG1 THR A   1       2.928  -9.087   4.179  0.00  0.00    -0.383 OA
ATOM     16  HG1 THR A   1       2.825  -8.137   4.439  0.00  0.00    +0.210 HD
ENDBRANCH  13  15
ENDBRANCH  10  13
ENDBRANCH   6  10
ENDBRANCH   5   7
BRANCH   5  17
ATOM     17  CB  CYS A   2       7.074 -12.391   5.366  0.00  0.00    +0.098 C 
ATOM     18  SG  CYS A   2       7.467 -13.391   6.869  0.00  0.00    -0.080 S 
ENDBRANCH   5  17
ENDBRANCH   1   5
BRANCH   3  19
ATOM     19  CA  ARG A   3       5.311  -8.186   7.237  0.00  0.00    +0.137 C 
BRANCH  19  20
ATOM     20  C   ARG A   3       3.979  -7.682   7.814  0.00  0.00    +0.227 C 
ATOM     21  O   ARG A   3       2.974  -7.603   7.108  0.00  0.00    -0.286 OA
ENDBRANCH  19  20
BRANCH  19  22
ATOM     22  CB  ARG A   3       5.910  -7.029   6.444  0.00  0.00    +0.031 C 
BRANCH  22  23
ATOM     23  CG  ARG A   3       7.230  -7.354   5.762  0.00  0.00    +0.045 C 
BRANCH  23  24
ATOM     24  CD  ARG A   3       8.392  -7.184   6.720  0.00  0.00    +0.174 C 
BRANCH  24  25
ATOM     25  NE  ARG A   3       8.562  -5.761   7.063  0.00  0.00    -0.265 N 
ATOM     26  CZ  ARG A   3       9.404  -5.313   7.990  0.00  0.00    +0.342 C 
ATOM     27  NH2 ARG A   3      10.167  -6.178   8.629  0.00  0.00    -0.292 N 
ATOM     28 HH21 ARG A   3      10.832  -5.847   9.357  0.00  0.00    +0.255 HD
ATOM     29 HH22 ARG A   3      10.104  -7.192   8.405  0.00  0.00    +0.255 HD
ATOM     30  NH1 ARG A   3       9.497  -3.992   8.239  0.00  0.00    -0.292 N 
ATOM     31 HH11 ARG A   3      10.156  -3.645   8.964  0.00  0.00    +0.255 HD
ATOM     32 HH12 ARG A   3       8.909  -3.320   7.706  0.00  0.00    +0.255 HD
ATOM     33  HE  ARG A   3       7.988  -5.063   6.548  0.00  0.00    +0.259 HD
ENDBRANCH  24  25
ENDBRANCH  23  24
ENDBRANCH  22  23
ENDBRANCH  19  22
ENDBRANCH   3  19
TORSDOF 13
REMARK  Name = ../refined-set-2016/4np2/4np2_pocket.pdb
REMARK  104 active torsions:
REMARK  status: ('A' for Active; 'I' for Inactive)
REMARK    1  A    between atoms: _1  and  _3
REMARK    2  A    between atoms: _3  and  _4
REMARK    3  A    between atoms: _3  and  _6
REMARK    4  A    between atoms: _6  and  _7
REMARK    5  A    between atoms: _10  and  _12
REMARK    6  A    between atoms: _12  and  _13
REMARK    7  A    between atoms: _12  and  _15
REMARK    8  A    between atoms: _15  and  _16
REMARK    9  A    between atoms: _21  and  _23
REMARK   10  A    between atoms: _23  and  _24
REMARK   11  A    between atoms: _23  and  _26
REMARK   12  A    between atoms: _29  and  _31
REMARK   13  A    between atoms: _31  and  _32
REMARK   14  A    between atoms: _31  and  _34
REMARK   15  A    between atoms: _34  and  _35
REMARK   16  A    between atoms: _38  and  _40
REMARK   17  A    between atoms: _40  and  _41
REMARK   18  A    between atoms: _40  and  _43
REMARK   19  A    between atoms: _45  and  _47
REMARK   20  A    between atoms: _47  and  _48
REMARK   21  A    between atoms: _47  and  _50
REMARK   22  A    between atoms: _50  and  _51
REMARK   23  A    between atoms: _56  and  _58
REMARK   24  A    between atoms: _58  and  _59
REMARK   25  A    between atoms: _58  and  _61
REMARK   26  A    between atoms: _64  and  _66
REMARK   27  A    between atoms: _66  and  _67
REMARK   28  A    between atoms: _66  and  _69
REMARK   29  A    between atoms: _69  and  _70
REMARK   30  A    between atoms: _70  and  _71
REMARK   31  A    between atoms: _74  and  _76
REMARK   32  A    between atoms: _76  and  _77
REMARK   33  A    between atoms: _76  and  _79
REMARK   34  A    between atoms: _79  and  _80
REMARK   35  A    between atoms: _80  and  _81
REMARK   36  A    between atoms: _81  and  _82
REMARK   37  A    between atoms: _82  and  _83
REMARK   38  A    between atoms: _87  and  _89
REMARK   39  A    between atoms: _89  and  _90
REMARK   40  A    between atoms: _89  and  _92
REMARK   41  A    between atoms: _92  and  _93
REMARK   42  A    between atoms: _98  and  _100
REMARK   43  A    between atoms: _100  and  _101
REMARK   44  A    between atoms: _103  and  _105
REMARK   45  A    between atoms: _105  and  _106
REMARK   46  A    between atoms: _105  and  _108
REMARK   47  A    between atoms: _108  and  _109
REMARK   48  A    between atoms: _109  and  _110
REMARK   49  A    between atoms: _110  and  _111
REMARK   50  A    between atoms: _120  and  _122
REMARK   51  A    between atoms: _122  and  _123
REMARK   52  A    between atoms: _122  and  _125
REMARK   53  A    between atoms: _125  and  _126
REMARK   54  A    between atoms: _131  and  _132
REMARK   55  A    between atoms: _134  and  _136
REMARK   56  A    between atoms: _136  and  _137
REMARK   57  A    between atoms: _136  and  _139
REMARK   58  A    between atoms: _139  and  _140
REMARK   59  A    between atoms: _143  and  _145
REMARK   60  A    between atoms: _145  and  _146
REMARK   61  A    between atoms: _145  and  _148
REMARK   62  A    between atoms: _150  and  _152
REMARK   63  A    between atoms: _152  and  _153
REMARK   64  A    between atoms: _152  and  _155
REMARK   65  A    between atoms: _155  and  _156
REMARK   66  A    between atoms: _156  and  _157
REMARK   67  A    between atoms: _157  and  _158
REMARK   68  A    between atoms: _167  and  _169
REMARK   69  A    between atoms: _169  and  _170
REMARK   70  A    between atoms: _169  and  _172
REMARK   71  A    between atoms: _172  and  _173
REMARK   72  A    between atoms: _176  and  _178
REMARK   73  A    between atoms: _178  and  _179
REMARK   74  A    between atoms: _178  and  _181
REMARK   75  A    between atoms: _181  and  _182
REMARK   76  A    between atoms: _185  and  _187
REMARK   77  A    between atoms: _187  and  _188
REMARK   78  A    between atoms: _187  and  _190
REMARK   79  A    between atoms: _193  and  _195
REMARK   80  A    between atoms: _195  and  _196
REMARK   81  A    between atoms: _195  and  _198
REMARK   82  A    between atoms: _198  and  _199
REMARK   83  A    between atoms: _204  and  _206
REMARK   84  A    between atoms: _206  and  _207
REMARK   85  A    between atoms: _206  and  _209
REMARK   86  A    between atoms: _209  and  _210
REMARK   87  A    between atoms: _210  and  _211
REMARK   88  A    between atoms: _211  and  _212
REMARK   89  A    between atoms: _221  and  _223
REMARK   90  A    between atoms: _223  and  _224
REMARK   91  A    between atoms: _223  and  _226
REMARK   92  A    between atoms: _226  and  _227
REMARK   93  A    between atoms: _230  and  _232
REMARK   94  A    between atoms: _232  and  _233
REMARK   95  A    between atoms: _235  and  _237
REMARK   96  A    between atoms: _237  and  _238
REMARK   97  A    between atoms: _237  and  _240
REMARK   98  A    between atoms: _240  and  _241
REMARK   99  A    between atoms: _244  and  _246
REMARK  100  A    between atoms: _246  and  _247
REMARK  101  A    between atoms: _246  and  _249
REMARK  102  A    between atoms: _249  and  _250
REMARK  103  A    between atoms: _250  and  _251
REMARK  104  A    between atoms: _251  and  _252
REMARK                            x       y       z     vdW  Elec       q    Type
REMARK                         _______ _______ _______ _____ _____    ______ ____
ROOT
ATOM      1  CA  ASP A   1       4.366  -1.100   7.816  0.00  0.00    +0.144 C 
ENDROOT
BRANCH   1   2
ATOM      2  N   ASP A   1       4.470  -1.588   9.193  0.00  0.00    -0.239 NA
ATOM      3  H   ASP A   1       4.282  -2.590   9.399  0.00  0.00    +0.142 HD
ENDBRANCH   1   2
BRANCH   1   4
ATOM      4  C   ASP A   1       2.887  -0.715   7.579  0.00  0.00    +0.225 C 
ATOM      5  O   ASP A   1       2.063  -0.734   8.519  0.00  0.00    -0.287 OA
ENDBRANCH   1   4
BRANCH   1   6
ATOM      6  CB  ASP A   1       4.769  -2.203   6.843  0.00  0.00    +0.139 C 
BRANCH   6   7
ATOM      7  CG  ASP A   1       6.247  -2.645   6.981  0.00  0.00    +0.367 C 
ATOM      8  OD2 ASP A   1       7.095  -1.956   7.632  0.00  0.00    -0.246 OA
ATOM      9  OD1 ASP A   1       6.549  -3.717   6.396  0.00  0.00    -0.246 OA
ENDBRANCH   6   7
ENDBRANCH   1   6
TORSDOF 4
REMARK  Name = ../refined-set-2016/4np2/4np2_pocket.pdb
REMARK  104 active torsions:
REMARK  status: ('A' for Active; 'I' for Inactive)
REMARK    1  A    between atoms: _1  and  _3
REMARK    2  A    between atoms: _3  and  _4
REMARK    3  A    between atoms: _3  and  _6
REMARK    4  A    between atoms: _6  and  _7
REMARK    5  A    between atoms: _10  and  _12
REMARK    6  A    between atoms: _12  and  _13
REMARK    7  A    between atoms: _12  and  _15
REMARK    8  A    between atoms: _15  and  _16
REMARK    9  A    between atoms: _21  and  _23
REMARK   10  A    between atoms: _23  and  _24
REMARK   11  A    between atoms: _23  and  _26
REMARK   12  A    between atoms: _29  and  _31
REMARK   13  A    between atoms: _31  and  _32
REMARK   14  A    between atoms: _31  and  _34
REMARK   15  A    between atoms: _34  and  _35
REMARK   16  A    between atoms: _38  and  _40
REMARK   17  A    between atoms: _40  and  _41
REMARK   18  A    between atoms: _40  and  _43
REMARK   19  A    between atoms: _45  and  _47
REMARK   20  A    between atoms: _47  and  _48
REMARK   21  A    between atoms: _47  and  _50
REMARK   22  A    between atoms: _50  and  _51
REMARK   23  A    between atoms: _56  and  _58
REMARK   24  A    between atoms: _58  and  _59
REMARK   25  A    between atoms: _58  and  _61
REMARK   26  A    between atoms: _64  and  _66
REMARK   27  A    between atoms: _66  and  _67
REMARK   28  A    between atoms: _66  and  _69
REMARK   29  A    between atoms: _69  and  _70
REMARK   30  A    between atoms: _70  and  _71
REMARK   31  A    between atoms: _74  and  _76
REMARK   32  A    between atoms: _76  and  _77
REMARK   33  A    between atoms: _76  and  _79
REMARK   34  A    between atoms: _79  and  _80
REMARK   35  A    between atoms: _80  and  _81
REMARK   36  A    between atoms: _81  and  _82
REMARK   37  A    between atoms: _82  and  _83
REMARK   38  A    between atoms: _87  and  _89
REMARK   39  A    between atoms: _89  and  _90
REMARK   40  A    between atoms: _89  and  _92
REMARK   41  A    between atoms: _92  and  _93
REMARK   42  A    between atoms: _98  and  _100
REMARK   43  A    between atoms: _100  and  _101
REMARK   44  A    between atoms: _103  and  _105
REMARK   45  A    between atoms: _105  and  _106
REMARK   46  A    between atoms: _105  and  _108
REMARK   47  A    between atoms: _108  and  _109
REMARK   48  A    between atoms: _109  and  _110
REMARK   49  A    between atoms: _110  and  _111
REMARK   50  A    between atoms: _120  and  _122
REMARK   51  A    between atoms: _122  and  _123
REMARK   52  A    between atoms: _122  and  _125
REMARK   53  A    between atoms: _125  and  _126
REMARK   54  A    between atoms: _131  and  _132
REMARK   55  A    between atoms: _134  and  _136
REMARK   56  A    between atoms: _136  and  _137
REMARK   57  A    between atoms: _136  and  _139
REMARK   58  A    between atoms: _139  and  _140
REMARK   59  A    between atoms: _143  and  _145
REMARK   60  A    between atoms: _145  and  _146
REMARK   61  A    between atoms: _145  and  _148
REMARK   62  A    between atoms: _150  and  _152
REMARK   63  A    between atoms: _152  and  _153
REMARK   64  A    between atoms: _152  and  _155
REMARK   65  A    between atoms: _155  and  _156
REMARK   66  A    between atoms: _156  and  _157
REMARK   67  A    between atoms: _157  and  _158
REMARK   68  A    between atoms: _167  and  _169
REMARK   69  A    between atoms: _169  and  _170
REMARK   70  A    between atoms: _169  and  _172
REMARK   71  A    between atoms: _172  and  _173
REMARK   72  A    between atoms: _176  and  _178
REMARK   73  A    between atoms: _178  and  _179
REMARK   74  A    between atoms: _178  and  _181
REMARK   75  A    between atoms: _181  and  _182
REMARK   76  A    between atoms: _185  and  _187
REMARK   77  A    between atoms: _187  and  _188
REMARK   78  A    between atoms: _187  and  _190
REMARK   79  A    between atoms: _193  and  _195
REMARK   80  A    between atoms: _195  and  _196
REMARK   81  A    between atoms: _195  and  _198
REMARK   82  A    between atoms: _198  and  _199
REMARK   83  A    between atoms: _204  and  _206
REMARK   84  A    between atoms: _206  and  _207
REMARK   85  A    between atoms: _206  and  _209
REMARK   86  A    between atoms: _209  and  _210
REMARK   87  A    between atoms: _210  and  _211
REMARK   88  A    between atoms: _211  and  _212
REMARK   89  A    between atoms: _221  and  _223
REMARK   90  A    between atoms: _223  and  _224
REMARK   91  A    between atoms: _223  and  _226
REMARK   92  A    between atoms: _226  and  _227
REMARK   93  A    between atoms: _230  and  _232
REMARK   94  A    between atoms: _232  and  _233
REMARK   95  A    between atoms: _235  and  _237
REMARK   96  A    between atoms: _237  and  _238
REMARK   97  A    between atoms: _237  and  _240
REMARK   98  A    between atoms: _240  and  _241
REMARK   99  A    between atoms: _244  and  _246
REMARK  100  A    between atoms: _246  and  _247
REMARK  101  A    between atoms: _246  and  _249
REMARK  102  A    between atoms: _249  and  _250
REMARK  103  A    between atoms: _250  and  _251
REMARK  104  A    between atoms: _251  and  _252
REMARK                            x       y       z     vdW  Elec       q    Type
REMARK                         _______ _______ _______ _____ _____    ______ ____
ROOT
ATOM      1  CA  ARG A   4      10.900  -4.671  -5.783  0.00  0.00    +0.149 C 
ENDROOT
BRANCH   1   4
ATOM      2  C   ASN A   3      10.837  -2.296  -6.182  0.00  0.00    +0.241 C 
ATOM      3  O   ASN A   3      12.058  -2.212  -6.016  0.00  0.00    -0.273 OA
ATOM      4  N   ARG A   4      10.184  -3.457  -6.125  0.00  0.00    -0.297 N 
ATOM      5  H   ARG A   4       9.164  -3.492  -6.325  0.00  0.00    +0.150 HD
BRANCH   2   6
ATOM      6  CA  ASN A   3      10.018  -1.056  -6.446  0.00  0.00    +0.158 C 
BRANCH   6   9
ATOM      7  C   VAL A   2      10.706   0.586  -4.794  0.00  0.00    +0.241 C 
ATOM      8  O   VAL A   2      10.056   0.036  -3.901  0.00  0.00    -0.273 OA
ATOM      9  N   ASN A   3      10.732   0.153  -6.050  0.00  0.00    -0.297 N 
ATOM     10  H   ASN A   3      11.271   0.685  -6.763  0.00  0.00    +0.150 HD
BRANCH   7  11
ATOM     11  CA  VAL A   2      11.556   1.821  -4.498  0.00  0.00    +0.148 C 
BRANCH  11  13
ATOM     12  C   ILE A   1      10.649   4.052  -4.796  0.00  0.00    +0.238 C 
ATOM     13  N   VAL A   2      10.678   2.920  -4.096  0.00  0.00    -0.297 N 
ATOM     14  H   VAL A   2      10.072   2.816  -3.257  0.00  0.00    +0.150 HD
ATOM     15  O   ILE A   1      11.339   4.242  -5.818  0.00  0.00    -0.274 OA
BRANCH  12  16
ATOM     16  CA  ILE A   1       9.691   5.129  -4.279  0.00  0.00    +0.145 C 
BRANCH  16  17
ATOM     17  CB  ILE A   1       8.522   5.281  -5.269  0.00  0.00    +0.025 C 
ATOM     18  CG2 ILE A   1       7.786   3.924  -5.417  0.00  0.00    +0.002 C 
BRANCH  17  19
ATOM     19  CG1 ILE A   1       7.589   6.390  -4.780  0.00  0.00    +0.002 C 
ATOM     20  CD1 ILE A   1       6.516   6.753  -5.733  0.00  0.00    +0.000 C 
ENDBRANCH  17  19
ENDBRANCH  16  17
BRANCH  16  21
ATOM     21  N   ILE A   1      10.410   6.374  -4.096  0.00  0.00    -0.238 NA
ATOM     22  H   ILE A   1      10.308   7.121  -4.812  0.00  0.00    +0.142 HD
ENDBRANCH  16  21
ENDBRANCH  12  16
ENDBRANCH  11  13
BRANCH  11  23
ATOM     23  CB  VAL A   2      12.604   1.454  -3.427  0.00  0.00    +0.027 C 
ATOM     24  CG2 VAL A   2      13.389   2.703  -2.924  0.00  0.00    +0.002 C 
ATOM     25  CG1 VAL A   2      13.568   0.353  -3.964  0.00  0.00    +0.002 C 
ENDBRANCH  11  23
ENDBRANCH   7  11
ENDBRANCH   6   9
BRANCH   6  26
ATOM     26  CB  ASN A   3       9.637  -0.943  -7.921  0.00  0.00    +0.114 C 
BRANCH  26  27
ATOM     27  CG  ASN A   3       8.606   0.140  -8.131  0.00  0.00    +0.222 C 
ATOM     28  OD1 ASN A   3       7.407  -0.082  -7.907  0.00  0.00    -0.275 OA
ATOM     29  ND2 ASN A   3       9.070   1.341  -8.478  0.00  0.00    -0.329 N 
ATOM     30 HD21 ASN A   3       8.416   2.144  -8.572  0.00  0.00    +0.145 HD
ATOM     31 HD22 ASN A   3      10.086   1.475  -8.655  0.00  0.00    +0.145 HD
ENDBRANCH  26  27
ENDBRANCH   6  26
ENDBRANCH   2   6
ENDBRANCH   1   4
BRANCH   1  32
ATOM     32  C   ARG A   4      11.942  -5.042  -6.854  0.00  0.00    +0.241 C 
ATOM     33  O   ARG A   4      12.969  -5.621  -6.536  0.00  0.00    -0.273 OA
ATOM     34  N   ASP A   5      11.696  -4.677  -8.118  0.00  0.00    -0.297 N 
ATOM     35  H   ASP A   5      10.779  -4.249  -8.360  0.00  0.00    +0.150 HD
BRANCH  34  36
ATOM     36  CA  ASP A   5      12.715  -4.875  -9.177  0.00  0.00    +0.160 C 
BRANCH  36  37
ATOM     37  C   ASP A   5      13.808  -3.810  -9.215  0.00  0.00    +0.241 C 
ATOM     38  N   GLY A   6      13.745  -2.905  -8.242  0.00  0.00    -0.295 N 
ATOM     39  H   GLY A   6      12.913  -2.915  -7.618  0.00  0.00    +0.150 HD
ATOM     40  O   ASP A   5      14.650  -3.787 -10.140  0.00  0.00    -0.273 OA
BRANCH  38  41
ATOM     41  CA  GLY A   6      14.781  -1.893  -7.997  0.00  0.00    +0.176 C 
BRANCH  41  42
ATOM     42  C   GLY A   6      14.513  -0.575  -8.703  0.00  0.00    +0.243 C 
ATOM     43  O   GLY A   6      15.237   0.390  -8.491  0.00  0.00    -0.273 OA
ATOM     44  N   THR A   7      13.496  -0.534  -9.565  0.00  0.00    -0.295 N 
ATOM     45  H   THR A   7      12.937  -1.393  -9.743  0.00  0.00    +0.150 HD
BRANCH  44  46
ATOM     46  CA  THR A   7      13.160   0.705 -10.261  0.00  0.00    +0.176 C 
BRANCH  46  47
ATOM     47  C   THR A   7      12.857   1.785  -9.222  0.00  0.00    +0.243 C 
ATOM     48  O   THR A   7      12.109   1.536  -8.281  0.00  0.00    -0.273 OA
ATOM     49  N   ARG A   8      13.418   2.978  -9.392  0.00  0.00    -0.298 N 
ATOM     50  H   ARG A   8      14.025   3.143 -10.220  0.00  0.00    +0.150 HD
BRANCH  49  51
ATOM     51  CA  ARG A   8      13.197   4.066  -8.434  0.00  0.00    +0.137 C 
BRANCH  51  52
ATOM     52  C   ARG A   8      12.602   5.326  -9.051  0.00  0.00    +0.227 C 
ATOM     53  O   ARG A   8      12.915   5.695 -10.191  0.00  0.00    -0.286 OA
ENDBRANCH  51  52
BRANCH  51  54
ATOM     54  CB  ARG A   8      14.490   4.439  -7.698  0.00  0.00    +0.031 C 
BRANCH  54  55
ATOM     55  CG  ARG A   8      14.798   3.559  -6.477  0.00  0.00    +0.045 C 
BRANCH  55  56
ATOM     56  CD  ARG A   8      16.157   3.957  -5.859  0.00  0.00    +0.174 C 
BRANCH  56  57
ATOM     57  NE  ARG A   8      16.654   2.920  -4.974  0.00  0.00    -0.265 N 
ATOM     58  CZ  ARG A   8      17.011   3.108  -3.710  0.00  0.00    +0.342 C 
ATOM     59  NH2 ARG A   8      17.450   2.069  -3.016  0.00  0.00    -0.292 N 
ATOM     60 HH21 ARG A   8      17.736   2.190  -2.023  0.00  0.00    +0.255 HD
ATOM     61 HH22 ARG A   8      17.509   1.132  -3.464  0.00  0.00    +0.255 HD
ATOM     62  NH1 ARG A   8      16.936   4.315  -3.139  0.00  0.00    -0.292 N 
ATOM     63 HH11 ARG A   8      17.221   4.439  -2.147  0.00  0.00    +0.255 HD
ATOM     64 HH12 ARG A   8      16.593   5.129  -3.687  0.00  0.00    +0.255 HD
ATOM     65  HE  ARG A   8      16.737   1.958  -5.359  0.00  0.00    +0.259 HD
ENDBRANCH  56  57
ENDBRANCH  55  56
ENDBRANCH  54  55
ENDBRANCH  51  54
ENDBRANCH  49  51
ENDBRANCH  46  47
BRANCH  46  66
ATOM     66  CB  THR A   7      11.917   0.512 -11.191  0.00  0.00    +0.137 C 
ATOM     67  CG2 THR A   7      11.644   1.821 -11.920  0.00  0.00    +0.034 C 
BRANCH  66  68
ATOM     68  OG1 THR A   7      12.223  -0.486 -12.189  0.00  0.00    -0.382 OA
ATOM     69  HG1 THR A   7      11.439  -0.611 -12.780  0.00  0.00    +0.210 HD
ENDBRANCH  66  68
ENDBRANCH  46  66
ENDBRANCH  44  46
ENDBRANCH  41  42
ENDBRANCH  38  41
ENDBRANCH  36  37
BRANCH  36  70
ATOM     70  CB  ASP A   5      12.044  -4.997 -10.573  0.00  0.00    +0.143 C 
BRANCH  70  71
ATOM     71  CG  ASP A   5      11.440  -3.680 -11.075  0.00  0.00    +0.367 C 
ATOM     72  OD2 ASP A   5      11.567  -2.636 -10.405  0.00  0.00    -0.246 OA
ATOM     73  OD1 ASP A   5      10.776  -3.724 -12.148  0.00  0.00    -0.246 OA
ENDBRANCH  70  71
ENDBRANCH  36  70
ENDBRANCH  34  36
ENDBRANCH   1  32
BRANCH   1  74
ATOM     74  CB  ARG A   4       9.911  -5.827  -5.497  0.00  0.00    +0.033 C 
BRANCH  74  75
ATOM     75  CG  ARG A   4      10.573  -7.167  -5.098  0.00  0.00    +0.045 C 
BRANCH  75  76
ATOM     76  CD  ARG A   4      11.385  -7.057  -3.780  0.00  0.00    +0.174 C 
BRANCH  76  77
ATOM     77  NE  ARG A   4      12.735  -6.481  -3.951  0.00  0.00    -0.265 N 
ATOM     78  CZ  ARG A   4      13.700  -6.568  -3.040  0.00  0.00    +0.342 C 
ATOM     79  NH2 ARG A   4      13.470  -7.199  -1.898  0.00  0.00    -0.292 N 
ATOM     80 HH21 ARG A   4      14.221  -7.270  -1.182  0.00  0.00    +0.255 HD
ATOM     81 HH22 ARG A   4      12.538  -7.624  -1.717  0.00  0.00    +0.255 HD
ATOM     82  NH1 ARG A   4      14.886  -6.019  -3.253  0.00  0.00    -0.292 N 
ATOM     83 HH11 ARG A   4      15.631  -6.095  -2.532  0.00  0.00    +0.255 HD
ATOM     84 HH12 ARG A   4      15.072  -5.512  -4.142  0.00  0.00    +0.255 HD
ATOM     85  HE  ARG A   4      12.943  -5.977  -4.837  0.00  0.00    +0.259 HD
ENDBRANCH  76  77
ENDBRANCH  75  76
ENDBRANCH  74  75
ENDBRANCH   1  74
TORSDOF 33
REMARK  Name = ../refined-set-2016/4np2/4np2_pocket.pdb
REMARK  104 active torsions:
REMARK  status: ('A' for Active; 'I' for Inactive)
REMARK    1  A    between atoms: _1  and  _3
REMARK    2  A    between atoms: _3  and  _4
REMARK    3  A    between atoms: _3  and  _6
REMARK    4  A    between atoms: _6  and  _7
REMARK    5  A    between atoms: _10  and  _12
REMARK    6  A    between atoms: _12  and  _13
REMARK    7  A    between atoms: _12  and  _15
REMARK    8  A    between atoms: _15  and  _16
REMARK    9  A    between atoms: _21  and  _23
REMARK   10  A    between atoms: _23  and  _24
REMARK   11  A    between atoms: _23  and  _26
REMARK   12  A    between atoms: _29  and  _31
REMARK   13  A    between atoms: _31  and  _32
REMARK   14  A    between atoms: _31  and  _34
REMARK   15  A    between atoms: _34  and  _35
REMARK   16  A    between atoms: _38  and  _40
REMARK   17  A    between atoms: _40  and  _41
REMARK   18  A    between atoms: _40  and  _43
REMARK   19  A    between atoms: _45  and  _47
REMARK   20  A    between atoms: _47  and  _48
REMARK   21  A    between atoms: _47  and  _50
REMARK   22  A    between atoms: _50  and  _51
REMARK   23  A    between atoms: _56  and  _58
REMARK   24  A    between atoms: _58  and  _59
REMARK   25  A    between atoms: _58  and  _61
REMARK   26  A    between atoms: _64  and  _66
REMARK   27  A    between atoms: _66  and  _67
REMARK   28  A    between atoms: _66  and  _69
REMARK   29  A    between atoms: _69  and  _70
REMARK   30  A    between atoms: _70  and  _71
REMARK   31  A    between atoms: _74  and  _76
REMARK   32  A    between atoms: _76  and  _77
REMARK   33  A    between atoms: _76  and  _79
REMARK   34  A    between atoms: _79  and  _80
REMARK   35  A    between atoms: _80  and  _81
REMARK   36  A    between atoms: _81  and  _82
REMARK   37  A    between atoms: _82  and  _83
REMARK   38  A    between atoms: _87  and  _89
REMARK   39  A    between atoms: _89  and  _90
REMARK   40  A    between atoms: _89  and  _92
REMARK   41  A    between atoms: _92  and  _93
REMARK   42  A    between atoms: _98  and  _100
REMARK   43  A    between atoms: _100  and  _101
REMARK   44  A    between atoms: _103  and  _105
REMARK   45  A    between atoms: _105  and  _106
REMARK   46  A    between atoms: _105  and  _108
REMARK   47  A    between atoms: _108  and  _109
REMARK   48  A    between atoms: _109  and  _110
REMARK   49  A    between atoms: _110  and  _111
REMARK   50  A    between atoms: _120  and  _122
REMARK   51  A    between atoms: _122  and  _123
REMARK   52  A    between atoms: _122  and  _125
REMARK   53  A    between atoms: _125  and  _126
REMARK   54  A    between atoms: _131  and  _132
REMARK   55  A    between atoms: _134  and  _136
REMARK   56  A    between atoms: _136  and  _137
REMARK   57  A    between atoms: _136  and  _139
REMARK   58  A    between atoms: _139  and  _140
REMARK   59  A    between atoms: _143  and  _145
REMARK   60  A    between atoms: _145  and  _146
REMARK   61  A    between atoms: _145  and  _148
REMARK   62  A    between atoms: _150  and  _152
REMARK   63  A    between atoms: _152  and  _153
REMARK   64  A    between atoms: _152  and  _155
REMARK   65  A    between atoms: _155  and  _156
REMARK   66  A    between atoms: _156  and  _157
REMARK   67  A    between atoms: _157  and  _158
REMARK   68  A    between atoms: _167  and  _169
REMARK   69  A    between atoms: _169  and  _170
REMARK   70  A    between atoms: _169  and  _172
REMARK   71  A    between atoms: _172  and  _173
REMARK   72  A    between atoms: _176  and  _178
REMARK   73  A    between atoms: _178  and  _179
REMARK   74  A    between atoms: _178  and  _181
REMARK   75  A    between atoms: _181  and  _182
REMARK   76  A    between atoms: _185  and  _187
REMARK   77  A    between atoms: _187  and  _188
REMARK   78  A    between atoms: _187  and  _190
REMARK   79  A    between atoms: _193  and  _195
REMARK   80  A    between atoms: _195  and  _196
REMARK   81  A    between atoms: _195  and  _198
REMARK   82  A    between atoms: _198  and  _199
REMARK   83  A    between atoms: _204  and  _206
REMARK   84  A    between atoms: _206  and  _207
REMARK   85  A    between atoms: _206  and  _209
REMARK   86  A    between atoms: _209  and  _210
REMARK   87  A    between atoms: _210  and  _211
REMARK   88  A    between atoms: _211  and  _212
REMARK   89  A    between atoms: _221  and  _223
REMARK   90  A    between atoms: _223  and  _224
REMARK   91  A    between atoms: _223  and  _226
REMARK   92  A    between atoms: _226  and  _227
REMARK   93  A    between atoms: _230  and  _232
REMARK   94  A    between atoms: _232  and  _233
REMARK   95  A    between atoms: _235  and  _237
REMARK   96  A    between atoms: _237  and  _238
REMARK   97  A    between atoms: _237  and  _240
REMARK   98  A    between atoms: _240  and  _241
REMARK   99  A    between atoms: _244  and  _246
REMARK  100  A    between atoms: _246  and  _247
REMARK  101  A    between atoms: _246  and  _249
REMARK  102  A    between atoms: _249  and  _250
REMARK  103  A    between atoms: _250  and  _251
REMARK  104  A    between atoms: _251  and  _252
REMARK                            x       y       z     vdW  Elec       q    Type
REMARK                         _______ _______ _______ _____ _____    ______ ____
ROOT
ATOM      1  O   HOH     1       7.788   0.572   7.675  0.00  0.00    +0.000 OA
ENDROOT
TORSDOF 0
REMARK  Name = ../refined-set-2016/4np2/4np2_pocket.pdb
REMARK  104 active torsions:
REMARK  status: ('A' for Active; 'I' for Inactive)
REMARK    1  A    between atoms: _1  and  _3
REMARK    2  A    between atoms: _3  and  _4
REMARK    3  A    between atoms: _3  and  _6
REMARK    4  A    between atoms: _6  and  _7
REMARK    5  A    between atoms: _10  and  _12
REMARK    6  A    between atoms: _12  and  _13
REMARK    7  A    between atoms: _12  and  _15
REMARK    8  A    between atoms: _15  and  _16
REMARK    9  A    between atoms: _21  and  _23
REMARK   10  A    between atoms: _23  and  _24
REMARK   11  A    between atoms: _23  and  _26
REMARK   12  A    between atoms: _29  and  _31
REMARK   13  A    between atoms: _31  and  _32
REMARK   14  A    between atoms: _31  and  _34
REMARK   15  A    between atoms: _34  and  _35
REMARK   16  A    between atoms: _38  and  _40
REMARK   17  A    between atoms: _40  and  _41
REMARK   18  A    between atoms: _40  and  _43
REMARK   19  A    between atoms: _45  and  _47
REMARK   20  A    between atoms: _47  and  _48
REMARK   21  A    between atoms: _47  and  _50
REMARK   22  A    between atoms: _50  and  _51
REMARK   23  A    between atoms: _56  and  _58
REMARK   24  A    between atoms: _58  and  _59
REMARK   25  A    between atoms: _58  and  _61
REMARK   26  A    between atoms: _64  and  _66
REMARK   27  A    between atoms: _66  and  _67
REMARK   28  A    between atoms: _66  and  _69
REMARK   29  A    between atoms: _69  and  _70
REMARK   30  A    between atoms: _70  and  _71
REMARK   31  A    between atoms: _74  and  _76
REMARK   32  A    between atoms: _76  and  _77
REMARK   33  A    between atoms: _76  and  _79
REMARK   34  A    between atoms: _79  and  _80
REMARK   35  A    between atoms: _80  and  _81
REMARK   36  A    between atoms: _81  and  _82
REMARK   37  A    between atoms: _82  and  _83
REMARK   38  A    between atoms: _87  and  _89
REMARK   39  A    between atoms: _89  and  _90
REMARK   40  A    between atoms: _89  and  _92
REMARK   41  A    between atoms: _92  and  _93
REMARK   42  A    between atoms: _98  and  _100
REMARK   43  A    between atoms: _100  and  _101
REMARK   44  A    between atoms: _103  and  _105
REMARK   45  A    between atoms: _105  and  _106
REMARK   46  A    between atoms: _105  and  _108
REMARK   47  A    between atoms: _108  and  _109
REMARK   48  A    between atoms: _109  and  _110
REMARK   49  A    between atoms: _110  and  _111
REMARK   50  A    between atoms: _120  and  _122
REMARK   51  A    between atoms: _122  and  _123
REMARK   52  A    between atoms: _122  and  _125
REMARK   53  A    between atoms: _125  and  _126
REMARK   54  A    between atoms: _131  and  _132
REMARK   55  A    between atoms: _134  and  _136
REMARK   56  A    between atoms: _136  and  _137
REMARK   57  A    between atoms: _136  and  _139
REMARK   58  A    between atoms: _139  and  _140
REMARK   59  A    between atoms: _143  and  _145
REMARK   60  A    between atoms: _145  and  _146
REMARK   61  A    between atoms: _145  and  _148
REMARK   62  A    between atoms: _150  and  _152
REMARK   63  A    between atoms: _152  and  _153
REMARK   64  A    between atoms: _152  and  _155
REMARK   65  A    between atoms: _155  and  _156
REMARK   66  A    between atoms: _156  and  _157
REMARK   67  A    between atoms: _157  and  _158
REMARK   68  A    between atoms: _167  and  _169
REMARK   69  A    between atoms: _169  and  _170
REMARK   70  A    between atoms: _169  and  _172
REMARK   71  A    between atoms: _172  and  _173
REMARK   72  A    between atoms: _176  and  _178
REMARK   73  A    between atoms: _178  and  _179
REMARK   74  A    between atoms: _178  and  _181
REMARK   75  A    between atoms: _181  and  _182
REMARK   76  A    between atoms: _185  and  _187
REMARK   77  A    between atoms: _187  and  _188
REMARK   78  A    between atoms: _187  and  _190
REMARK   79  A    between atoms: _193  and  _195
REMARK   80  A    between atoms: _195  and  _196
REMARK   81  A    between atoms: _195  and  _198
REMARK   82  A    between atoms: _198  and  _199
REMARK   83  A    between atoms: _204  and  _206
REMARK   84  A    between atoms: _206  and  _207
REMARK   85  A    between atoms: _206  and  _209
REMARK   86  A    between atoms: _209  and  _210
REMARK   87  A    between atoms: _210  and  _211
REMARK   88  A    between atoms: _211  and  _212
REMARK   89  A    between atoms: _221  and  _223
REMARK   90  A    between atoms: _223  and  _224
REMARK   91  A    between atoms: _223  and  _226
REMARK   92  A    between atoms: _226  and  _227
REMARK   93  A    between atoms: _230  and  _232
REMARK   94  A    between atoms: _232  and  _233
REMARK   95  A    between atoms: _235  and  _237
REMARK   96  A    between atoms: _237  and  _238
REMARK   97  A    between atoms: _237  and  _240
REMARK   98  A    between atoms: _240  and  _241
REMARK   99  A    between atoms: _244  and  _246
REMARK  100  A    between atoms: _246  and  _247
REMARK  101  A    between atoms: _246  and  _249
REMARK  102  A    between atoms: _249  and  _250
REMARK  103  A    between atoms: _250  and  _251
REMARK  104  A    between atoms: _251  and  _252
REMARK                            x       y       z     vdW  Elec       q    Type
REMARK                         _______ _______ _______ _____ _____    ______ ____
ROOT
ATOM      1  O   HOH     1      14.410  -3.118  -4.709  0.00  0.00    +0.000 OA
ENDROOT
TORSDOF 0
REMARK  Name = ../refined-set-2016/4np2/4np2_pocket.pdb
REMARK  104 active torsions:
REMARK  status: ('A' for Active; 'I' for Inactive)
REMARK    1  A    between atoms: _1  and  _3
REMARK    2  A    between atoms: _3  and  _4
REMARK    3  A    between atoms: _3  and  _6
REMARK    4  A    between atoms: _6  and  _7
REMARK    5  A    between atoms: _10  and  _12
REMARK    6  A    between atoms: _12  and  _13
REMARK    7  A    between atoms: _12  and  _15
REMARK    8  A    between atoms: _15  and  _16
REMARK    9  A    between atoms: _21  and  _23
REMARK   10  A    between atoms: _23  and  _24
REMARK   11  A    between atoms: _23  and  _26
REMARK   12  A    between atoms: _29  and  _31
REMARK   13  A    between atoms: _31  and  _32
REMARK   14  A    between atoms: _31  and  _34
REMARK   15  A    between atoms: _34  and  _35
REMARK   16  A    between atoms: _38  and  _40
REMARK   17  A    between atoms: _40  and  _41
REMARK   18  A    between atoms: _40  and  _43
REMARK   19  A    between atoms: _45  and  _47
REMARK   20  A    between atoms: _47  and  _48
REMARK   21  A    between atoms: _47  and  _50
REMARK   22  A    between atoms: _50  and  _51
REMARK   23  A    between atoms: _56  and  _58
REMARK   24  A    between atoms: _58  and  _59
REMARK   25  A    between atoms: _58  and  _61
REMARK   26  A    between atoms: _64  and  _66
REMARK   27  A    between atoms: _66  and  _67
REMARK   28  A    between atoms: _66  and  _69
REMARK   29  A    between atoms: _69  and  _70
REMARK   30  A    between atoms: _70  and  _71
REMARK   31  A    between atoms: _74  and  _76
REMARK   32  A    between atoms: _76  and  _77
REMARK   33  A    between atoms: _76  and  _79
REMARK   34  A    between atoms: _79  and  _80
REMARK   35  A    between atoms: _80  and  _81
REMARK   36  A    between atoms: _81  and  _82
REMARK   37  A    between atoms: _82  and  _83
REMARK   38  A    between atoms: _87  and  _89
REMARK   39  A    between atoms: _89  and  _90
REMARK   40  A    between atoms: _89  and  _92
REMARK   41  A    between atoms: _92  and  _93
REMARK   42  A    between atoms: _98  and  _100
REMARK   43  A    between atoms: _100  and  _101
REMARK   44  A    between atoms: _103  and  _105
REMARK   45  A    between atoms: _105  and  _106
REMARK   46  A    between atoms: _105  and  _108
REMARK   47  A    between atoms: _108  and  _109
REMARK   48  A    between atoms: _109  and  _110
REMARK   49  A    between atoms: _110  and  _111
REMARK   50  A    between atoms: _120  and  _122
REMARK   51  A    between atoms: _122  and  _123
REMARK   52  A    between atoms: _122  and  _125
REMARK   53  A    between atoms: _125  and  _126
REMARK   54  A    between atoms: _131  and  _132
REMARK   55  A    between atoms: _134  and  _136
REMARK   56  A    between atoms: _136  and  _137
REMARK   57  A    between atoms: _136  and  _139
REMARK   58  A    between atoms: _139  and  _140
REMARK   59  A    between atoms: _143  and  _145
REMARK   60  A    between atoms: _145  and  _146
REMARK   61  A    between atoms: _145  and  _148
REMARK   62  A    between atoms: _150  and  _152
REMARK   63  A    between atoms: _152  and  _153
REMARK   64  A    between atoms: _152  and  _155
REMARK   65  A    between atoms: _155  and  _156
REMARK   66  A    between atoms: _156  and  _157
REMARK   67  A    between atoms: _157  and  _158
REMARK   68  A    between atoms: _167  and  _169
REMARK   69  A    between atoms: _169  and  _170
REMARK   70  A    between atoms: _169  and  _172
REMARK   71  A    between atoms: _172  and  _173
REMARK   72  A    between atoms: _176  and  _178
REMARK   73  A    between atoms: _178  and  _179
REMARK   74  A    between atoms: _178  and  _181
REMARK   75  A    between atoms: _181  and  _182
REMARK   76  A    between atoms: _185  and  _187
REMARK   77  A    between atoms: _187  and  _188
REMARK   78  A    between atoms: _187  and  _190
REMARK   79  A    between atoms: _193  and  _195
REMARK   80  A    between atoms: _195  and  _196
REMARK   81  A    between atoms: _195  and  _198
REMARK   82  A    between atoms: _198  and  _199
REMARK   83  A    between atoms: _204  and  _206
REMARK   84  A    between atoms: _206  and  _207
REMARK   85  A    between atoms: _206  and  _209
REMARK   86  A    between atoms: _209  and  _210
REMARK   87  A    between atoms: _210  and  _211
REMARK   88  A    between atoms: _211  and  _212
REMARK   89  A    between atoms: _221  and  _223
REMARK   90  A    between atoms: _223  and  _224
REMARK   91  A    between atoms: _223  and  _226
REMARK   92  A    between atoms: _226  and  _227
REMARK   93  A    between atoms: _230  and  _232
REMARK   94  A    between atoms: _232  and  _233
REMARK   95  A    between atoms: _235  and  _237
REMARK   96  A    between atoms: _237  and  _238
REMARK   97  A    between atoms: _237  and  _240
REMARK   98  A    between atoms: _240  and  _241
REMARK   99  A    between atoms: _244  and  _246
REMARK  100  A    between atoms: _246  and  _247
REMARK  101  A    between atoms: _246  and  _249
REMARK  102  A    between atoms: _249  and  _250
REMARK  103  A    between atoms: _250  and  _251
REMARK  104  A    between atoms: _251  and  _252
REMARK                            x       y       z     vdW  Elec       q    Type
REMARK                         _______ _______ _______ _____ _____    ______ ____
ROOT
ATOM      1  O   HOH     1       7.412  -8.579  -6.912  0.00  0.00    +0.000 OA
ENDROOT
TORSDOF 0
REMARK  Name = ../refined-set-2016/4np2/4np2_pocket.pdb
REMARK  104 active torsions:
REMARK  status: ('A' for Active; 'I' for Inactive)
REMARK    1  A    between atoms: _1  and  _3
REMARK    2  A    between atoms: _3  and  _4
REMARK    3  A    between atoms: _3  and  _6
REMARK    4  A    between atoms: _6  and  _7
REMARK    5  A    between atoms: _10  and  _12
REMARK    6  A    between atoms: _12  and  _13
REMARK    7  A    between atoms: _12  and  _15
REMARK    8  A    between atoms: _15  and  _16
REMARK    9  A    between atoms: _21  and  _23
REMARK   10  A    between atoms: _23  and  _24
REMARK   11  A    between atoms: _23  and  _26
REMARK   12  A    between atoms: _29  and  _31
REMARK   13  A    between atoms: _31  and  _32
REMARK   14  A    between atoms: _31  and  _34
REMARK   15  A    between atoms: _34  and  _35
REMARK   16  A    between atoms: _38  and  _40
REMARK   17  A    between atoms: _40  and  _41
REMARK   18  A    between atoms: _40  and  _43
REMARK   19  A    between atoms: _45  and  _47
REMARK   20  A    between atoms: _47  and  _48
REMARK   21  A    between atoms: _47  and  _50
REMARK   22  A    between atoms: _50  and  _51
REMARK   23  A    between atoms: _56  and  _58
REMARK   24  A    between atoms: _58  and  _59
REMARK   25  A    between atoms: _58  and  _61
REMARK   26  A    between atoms: _64  and  _66
REMARK   27  A    between atoms: _66  and  _67
REMARK   28  A    between atoms: _66  and  _69
REMARK   29  A    between atoms: _69  and  _70
REMARK   30  A    between atoms: _70  and  _71
REMARK   31  A    between atoms: _74  and  _76
REMARK   32  A    between atoms: _76  and  _77
REMARK   33  A    between atoms: _76  and  _79
REMARK   34  A    between atoms: _79  and  _80
REMARK   35  A    between atoms: _80  and  _81
REMARK   36  A    between atoms: _81  and  _82
REMARK   37  A    between atoms: _82  and  _83
REMARK   38  A    between atoms: _87  and  _89
REMARK   39  A    between atoms: _89  and  _90
REMARK   40  A    between atoms: _89  and  _92
REMARK   41  A    between atoms: _92  and  _93
REMARK   42  A    between atoms: _98  and  _100
REMARK   43  A    between atoms: _100  and  _101
REMARK   44  A    between atoms: _103  and  _105
REMARK   45  A    between atoms: _105  and  _106
REMARK   46  A    between atoms: _105  and  _108
REMARK   47  A    between atoms: _108  and  _109
REMARK   48  A    between atoms: _109  and  _110
REMARK   49  A    between atoms: _110  and  _111
REMARK   50  A    between atoms: _120  and  _122
REMARK   51  A    between atoms: _122  and  _123
REMARK   52  A    between atoms: _122  and  _125
REMARK   53  A    between atoms: _125  and  _126
REMARK   54  A    between atoms: _131  and  _132
REMARK   55  A    between atoms: _134  and  _136
REMARK   56  A    between atoms: _136  and  _137
REMARK   57  A    between atoms: _136  and  _139
REMARK   58  A    between atoms: _139  and  _140
REMARK   59  A    between atoms: _143  and  _145
REMARK   60  A    between atoms: _145  and  _146
REMARK   61  A    between atoms: _145  and  _148
REMARK   62  A    between atoms: _150  and  _152
REMARK   63  A    between atoms: _152  and  _153
REMARK   64  A    between atoms: _152  and  _155
REMARK   65  A    between atoms: _155  and  _156
REMARK   66  A    between atoms: _156  and  _157
REMARK   67  A    between atoms: _157  and  _158
REMARK   68  A    between atoms: _167  and  _169
REMARK   69  A    between atoms: _169  and  _170
REMARK   70  A    between atoms: _169  and  _172
REMARK   71  A    between atoms: _172  and  _173
REMARK   72  A    between atoms: _176  and  _178
REMARK   73  A    between atoms: _178  and  _179
REMARK   74  A    between atoms: _178  and  _181
REMARK   75  A    between atoms: _181  and  _182
REMARK   76  A    between atoms: _185  and  _187
REMARK   77  A    between atoms: _187  and  _188
REMARK   78  A    between atoms: _187  and  _190
REMARK   79  A    between atoms: _193  and  _195
REMARK   80  A    between atoms: _195  and  _196
REMARK   81  A    between atoms: _195  and  _198
REMARK   82  A    between atoms: _198  and  _199
REMARK   83  A    between atoms: _204  and  _206
REMARK   84  A    between atoms: _206  and  _207
REMARK   85  A    between atoms: _206  and  _209
REMARK   86  A    between atoms: _209  and  _210
REMARK   87  A    between atoms: _210  and  _211
REMARK   88  A    between atoms: _211  and  _212
REMARK   89  A    between atoms: _221  and  _223
REMARK   90  A    between atoms: _223  and  _224
REMARK   91  A    between atoms: _223  and  _226
REMARK   92  A    between atoms: _226  and  _227
REMARK   93  A    between atoms: _230  and  _232
REMARK   94  A    between atoms: _232  and  _233
REMARK   95  A    between atoms: _235  and  _237
REMARK   96  A    between atoms: _237  and  _238
REMARK   97  A    between atoms: _237  and  _240
REMARK   98  A    between atoms: _240  and  _241
REMARK   99  A    between atoms: _244  and  _246
REMARK  100  A    between atoms: _246  and  _247
REMARK  101  A    between atoms: _246  and  _249
REMARK  102  A    between atoms: _249  and  _250
REMARK  103  A    between atoms: _250  and  _251
REMARK  104  A    between atoms: _251  and  _252
REMARK                            x       y       z     vdW  Elec       q    Type
REMARK                         _______ _______ _______ _____ _____    ______ ____
ROOT
ATOM      1  O   HOH     1       7.318  -3.445  -6.520  0.00  0.00    +0.000 OA
ENDROOT
TORSDOF 0
REMARK  Name = ../refined-set-2016/4np2/4np2_pocket.pdb
REMARK  104 active torsions:
REMARK  status: ('A' for Active; 'I' for Inactive)
REMARK    1  A    between atoms: _1  and  _3
REMARK    2  A    between atoms: _3  and  _4
REMARK    3  A    between atoms: _3  and  _6
REMARK    4  A    between atoms: _6  and  _7
REMARK    5  A    between atoms: _10  and  _12
REMARK    6  A    between atoms: _12  and  _13
REMARK    7  A    between atoms: _12  and  _15
REMARK    8  A    between atoms: _15  and  _16
REMARK    9  A    between atoms: _21  and  _23
REMARK   10  A    between atoms: _23  and  _24
REMARK   11  A    between atoms: _23  and  _26
REMARK   12  A    between atoms: _29  and  _31
REMARK   13  A    between atoms: _31  and  _32
REMARK   14  A    between atoms: _31  and  _34
REMARK   15  A    between atoms: _34  and  _35
REMARK   16  A    between atoms: _38  and  _40
REMARK   17  A    between atoms: _40  and  _41
REMARK   18  A    between atoms: _40  and  _43
REMARK   19  A    between atoms: _45  and  _47
REMARK   20  A    between atoms: _47  and  _48
REMARK   21  A    between atoms: _47  and  _50
REMARK   22  A    between atoms: _50  and  _51
REMARK   23  A    between atoms: _56  and  _58
REMARK   24  A    between atoms: _58  and  _59
REMARK   25  A    between atoms: _58  and  _61
REMARK   26  A    between atoms: _64  and  _66
REMARK   27  A    between atoms: _66  and  _67
REMARK   28  A    between atoms: _66  and  _69
REMARK   29  A    between atoms: _69  and  _70
REMARK   30  A    between atoms: _70  and  _71
REMARK   31  A    between atoms: _74  and  _76
REMARK   32  A    between atoms: _76  and  _77
REMARK   33  A    between atoms: _76  and  _79
REMARK   34  A    between atoms: _79  and  _80
REMARK   35  A    between atoms: _80  and  _81
REMARK   36  A    between atoms: _81  and  _82
REMARK   37  A    between atoms: _82  and  _83
REMARK   38  A    between atoms: _87  and  _89
REMARK   39  A    between atoms: _89  and  _90
REMARK   40  A    between atoms: _89  and  _92
REMARK   41  A    between atoms: _92  and  _93
REMARK   42  A    between atoms: _98  and  _100
REMARK   43  A    between atoms: _100  and  _101
REMARK   44  A    between atoms: _103  and  _105
REMARK   45  A    between atoms: _105  and  _106
REMARK   46  A    between atoms: _105  and  _108
REMARK   47  A    between atoms: _108  and  _109
REMARK   48  A    between atoms: _109  and  _110
REMARK   49  A    between atoms: _110  and  _111
REMARK   50  A    between atoms: _120  and  _122
REMARK   51  A    between atoms: _122  and  _123
REMARK   52  A    between atoms: _122  and  _125
REMARK   53  A    between atoms: _125  and  _126
REMARK   54  A    between atoms: _131  and  _132
REMARK   55  A    between atoms: _134  and  _136
REMARK   56  A    between atoms: _136  and  _137
REMARK   57  A    between atoms: _136  and  _139
REMARK   58  A    between atoms: _139  and  _140
REMARK   59  A    between atoms: _143  and  _145
REMARK   60  A    between atoms: _145  and  _146
REMARK   61  A    between atoms: _145  and  _148
REMARK   62  A    between atoms: _150  and  _152
REMARK   63  A    between atoms: _152  and  _153
REMARK   64  A    between atoms: _152  and  _155
REMARK   65  A    between atoms: _155  and  _156
REMARK   66  A    between atoms: _156  and  _157
REMARK   67  A    between atoms: _157  and  _158
REMARK   68  A    between atoms: _167  and  _169
REMARK   69  A    between atoms: _169  and  _170
REMARK   70  A    between atoms: _169  and  _172
REMARK   71  A    between atoms: _172  and  _173
REMARK   72  A    between atoms: _176  and  _178
REMARK   73  A    between atoms: _178  and  _179
REMARK   74  A    between atoms: _178  and  _181
REMARK   75  A    between atoms: _181  and  _182
REMARK   76  A    between atoms: _185  and  _187
REMARK   77  A    between atoms: _187  and  _188
REMARK   78  A    between atoms: _187  and  _190
REMARK   79  A    between atoms: _193  and  _195
REMARK   80  A    between atoms: _195  and  _196
REMARK   81  A    between atoms: _195  and  _198
REMARK   82  A    between atoms: _198  and  _199
REMARK   83  A    between atoms: _204  and  _206
REMARK   84  A    between atoms: _206  and  _207
REMARK   85  A    between atoms: _206  and  _209
REMARK   86  A    between atoms: _209  and  _210
REMARK   87  A    between atoms: _210  and  _211
REMARK   88  A    between atoms: _211  and  _212
REMARK   89  A    between atoms: _221  and  _223
REMARK   90  A    between atoms: _223  and  _224
REMARK   91  A    between atoms: _223  and  _226
REMARK   92  A    between atoms: _226  and  _227
REMARK   93  A    between atoms: _230  and  _232
REMARK   94  A    between atoms: _232  and  _233
REMARK   95  A    between atoms: _235  and  _237
REMARK   96  A    between atoms: _237  and  _238
REMARK   97  A    between atoms: _237  and  _240
REMARK   98  A    between atoms: _240  and  _241
REMARK   99  A    between atoms: _244  and  _246
REMARK  100  A    between atoms: _246  and  _247
REMARK  101  A    between atoms: _246  and  _249
REMARK  102  A    between atoms: _249  and  _250
REMARK  103  A    between atoms: _250  and  _251
REMARK  104  A    between atoms: _251  and  _252
REMARK                            x       y       z     vdW  Elec       q    Type
REMARK                         _______ _______ _______ _____ _____    ______ ____
ROOT
ATOM      1  O   HOH     1      14.980  -0.527   2.199  0.00  0.00    +0.000 OA
ENDROOT
TORSDOF 0
REMARK  Name = ../refined-set-2016/4np2/4np2_pocket.pdb
REMARK  104 active torsions:
REMARK  status: ('A' for Active; 'I' for Inactive)
REMARK    1  A    between atoms: _1  and  _3
REMARK    2  A    between atoms: _3  and  _4
REMARK    3  A    between atoms: _3  and  _6
REMARK    4  A    between atoms: _6  and  _7
REMARK    5  A    between atoms: _10  and  _12
REMARK    6  A    between atoms: _12  and  _13
REMARK    7  A    between atoms: _12  and  _15
REMARK    8  A    between atoms: _15  and  _16
REMARK    9  A    between atoms: _21  and  _23
REMARK   10  A    between atoms: _23  and  _24
REMARK   11  A    between atoms: _23  and  _26
REMARK   12  A    between atoms: _29  and  _31
REMARK   13  A    between atoms: _31  and  _32
REMARK   14  A    between atoms: _31  and  _34
REMARK   15  A    between atoms: _34  and  _35
REMARK   16  A    between atoms: _38  and  _40
REMARK   17  A    between atoms: _40  and  _41
REMARK   18  A    between atoms: _40  and  _43
REMARK   19  A    between atoms: _45  and  _47
REMARK   20  A    between atoms: _47  and  _48
REMARK   21  A    between atoms: _47  and  _50
REMARK   22  A    between atoms: _50  and  _51
REMARK   23  A    between atoms: _56  and  _58
REMARK   24  A    between atoms: _58  and  _59
REMARK   25  A    between atoms: _58  and  _61
REMARK   26  A    between atoms: _64  and  _66
REMARK   27  A    between atoms: _66  and  _67
REMARK   28  A    between atoms: _66  and  _69
REMARK   29  A    between atoms: _69  and  _70
REMARK   30  A    between atoms: _70  and  _71
REMARK   31  A    between atoms: _74  and  _76
REMARK   32  A    between atoms: _76  and  _77
REMARK   33  A    between atoms: _76  and  _79
REMARK   34  A    between atoms: _79  and  _80
REMARK   35  A    between atoms: _80  and  _81
REMARK   36  A    between atoms: _81  and  _82
REMARK   37  A    between atoms: _82  and  _83
REMARK   38  A    between atoms: _87  and  _89
REMARK   39  A    between atoms: _89  and  _90
REMARK   40  A    between atoms: _89  and  _92
REMARK   41  A    between atoms: _92  and  _93
REMARK   42  A    between atoms: _98  and  _100
REMARK   43  A    between atoms: _100  and  _101
REMARK   44  A    between atoms: _103  and  _105
REMARK   45  A    between atoms: _105  and  _106
REMARK   46  A    between atoms: _105  and  _108
REMARK   47  A    between atoms: _108  and  _109
REMARK   48  A    between atoms: _109  and  _110
REMARK   49  A    between atoms: _110  and  _111
REMARK   50  A    between atoms: _120  and  _122
REMARK   51  A    between atoms: _122  and  _123
REMARK   52  A    between atoms: _122  and  _125
REMARK   53  A    between atoms: _125  and  _126
REMARK   54  A    between atoms: _131  and  _132
REMARK   55  A    between atoms: _134  and  _136
REMARK   56  A    between atoms: _136  and  _137
REMARK   57  A    between atoms: _136  and  _139
REMARK   58  A    between atoms: _139  and  _140
REMARK   59  A    between atoms: _143  and  _145
REMARK   60  A    between atoms: _145  and  _146
REMARK   61  A    between atoms: _145  and  _148
REMARK   62  A    between atoms: _150  and  _152
REMARK   63  A    between atoms: _152  and  _153
REMARK   64  A    between atoms: _152  and  _155
REMARK   65  A    between atoms: _155  and  _156
REMARK   66  A    between atoms: _156  and  _157
REMARK   67  A    between atoms: _157  and  _158
REMARK   68  A    between atoms: _167  and  _169
REMARK   69  A    between atoms: _169  and  _170
REMARK   70  A    between atoms: _169  and  _172
REMARK   71  A    between atoms: _172  and  _173
REMARK   72  A    between atoms: _176  and  _178
REMARK   73  A    between atoms: _178  and  _179
REMARK   74  A    between atoms: _178  and  _181
REMARK   75  A    between atoms: _181  and  _182
REMARK   76  A    between atoms: _185  and  _187
REMARK   77  A    between atoms: _187  and  _188
REMARK   78  A    between atoms: _187  and  _190
REMARK   79  A    between atoms: _193  and  _195
REMARK   80  A    between atoms: _195  and  _196
REMARK   81  A    between atoms: _195  and  _198
REMARK   82  A    between atoms: _198  and  _199
REMARK   83  A    between atoms: _204  and  _206
REMARK   84  A    between atoms: _206  and  _207
REMARK   85  A    between atoms: _206  and  _209
REMARK   86  A    between atoms: _209  and  _210
REMARK   87  A    between atoms: _210  and  _211
REMARK   88  A    between atoms: _211  and  _212
REMARK   89  A    between atoms: _221  and  _223
REMARK   90  A    between atoms: _223  and  _224
REMARK   91  A    between atoms: _223  and  _226
REMARK   92  A    between atoms: _226  and  _227
REMARK   93  A    between atoms: _230  and  _232
REMARK   94  A    between atoms: _232  and  _233
REMARK   95  A    between atoms: _235  and  _237
REMARK   96  A    between atoms: _237  and  _238
REMARK   97  A    between atoms: _237  and  _240
REMARK   98  A    between atoms: _240  and  _241
REMARK   99  A    between atoms: _244  and  _246
REMARK  100  A    between atoms: _246  and  _247
REMARK  101  A    between atoms: _246  and  _249
REMARK  102  A    between atoms: _249  and  _250
REMARK  103  A    between atoms: _250  and  _251
REMARK  104  A    between atoms: _251  and  _252
REMARK                            x       y       z     vdW  Elec       q    Type
REMARK                         _______ _______ _______ _____ _____    ______ ____
ROOT
ATOM      1  O   HOH     1      15.033  -0.149  -0.564  0.00  0.00    +0.000 OA
ENDROOT
TORSDOF 0
REMARK  Name = ../refined-set-2016/4np2/4np2_pocket.pdb
REMARK  104 active torsions:
REMARK  status: ('A' for Active; 'I' for Inactive)
REMARK    1  A    between atoms: _1  and  _3
REMARK    2  A    between atoms: _3  and  _4
REMARK    3  A    between atoms: _3  and  _6
REMARK    4  A    between atoms: _6  and  _7
REMARK    5  A    between atoms: _10  and  _12
REMARK    6  A    between atoms: _12  and  _13
REMARK    7  A    between atoms: _12  and  _15
REMARK    8  A    between atoms: _15  and  _16
REMARK    9  A    between atoms: _21  and  _23
REMARK   10  A    between atoms: _23  and  _24
REMARK   11  A    between atoms: _23  and  _26
REMARK   12  A    between atoms: _29  and  _31
REMARK   13  A    between atoms: _31  and  _32
REMARK   14  A    between atoms: _31  and  _34
REMARK   15  A    between atoms: _34  and  _35
REMARK   16  A    between atoms: _38  and  _40
REMARK   17  A    between atoms: _40  and  _41
REMARK   18  A    between atoms: _40  and  _43
REMARK   19  A    between atoms: _45  and  _47
REMARK   20  A    between atoms: _47  and  _48
REMARK   21  A    between atoms: _47  and  _50
REMARK   22  A    between atoms: _50  and  _51
REMARK   23  A    between atoms: _56  and  _58
REMARK   24  A    between atoms: _58  and  _59
REMARK   25  A    between atoms: _58  and  _61
REMARK   26  A    between atoms: _64  and  _66
REMARK   27  A    between atoms: _66  and  _67
REMARK   28  A    between atoms: _66  and  _69
REMARK   29  A    between atoms: _69  and  _70
REMARK   30  A    between atoms: _70  and  _71
REMARK   31  A    between atoms: _74  and  _76
REMARK   32  A    between atoms: _76  and  _77
REMARK   33  A    between atoms: _76  and  _79
REMARK   34  A    between atoms: _79  and  _80
REMARK   35  A    between atoms: _80  and  _81
REMARK   36  A    between atoms: _81  and  _82
REMARK   37  A    between atoms: _82  and  _83
REMARK   38  A    between atoms: _87  and  _89
REMARK   39  A    between atoms: _89  and  _90
REMARK   40  A    between atoms: _89  and  _92
REMARK   41  A    between atoms: _92  and  _93
REMARK   42  A    between atoms: _98  and  _100
REMARK   43  A    between atoms: _100  and  _101
REMARK   44  A    between atoms: _103  and  _105
REMARK   45  A    between atoms: _105  and  _106
REMARK   46  A    between atoms: _105  and  _108
REMARK   47  A    between atoms: _108  and  _109
REMARK   48  A    between atoms: _109  and  _110
REMARK   49  A    between atoms: _110  and  _111
REMARK   50  A    between atoms: _120  and  _122
REMARK   51  A    between atoms: _122  and  _123
REMARK   52  A    between atoms: _122  and  _125
REMARK   53  A    between atoms: _125  and  _126
REMARK   54  A    between atoms: _131  and  _132
REMARK   55  A    between atoms: _134  and  _136
REMARK   56  A    between atoms: _136  and  _137
REMARK   57  A    between atoms: _136  and  _139
REMARK   58  A    between atoms: _139  and  _140
REMARK   59  A    between atoms: _143  and  _145
REMARK   60  A    between atoms: _145  and  _146
REMARK   61  A    between atoms: _145  and  _148
REMARK   62  A    between atoms: _150  and  _152
REMARK   63  A    between atoms: _152  and  _153
REMARK   64  A    between atoms: _152  and  _155
REMARK   65  A    between atoms: _155  and  _156
REMARK   66  A    between atoms: _156  and  _157
REMARK   67  A    between atoms: _157  and  _158
REMARK   68  A    between atoms: _167  and  _169
REMARK   69  A    between atoms: _169  and  _170
REMARK   70  A    between atoms: _169  and  _172
REMARK   71  A    between atoms: _172  and  _173
REMARK   72  A    between atoms: _176  and  _178
REMARK   73  A    between atoms: _178  and  _179
REMARK   74  A    between atoms: _178  and  _181
REMARK   75  A    between atoms: _181  and  _182
REMARK   76  A    between atoms: _185  and  _187
REMARK   77  A    between atoms: _187  and  _188
REMARK   78  A    between atoms: _187  and  _190
REMARK   79  A    between atoms: _193  and  _195
REMARK   80  A    between atoms: _195  and  _196
REMARK   81  A    between atoms: _195  and  _198
REMARK   82  A    between atoms: _198  and  _199
REMARK   83  A    between atoms: _204  and  _206
REMARK   84  A    between atoms: _206  and  _207
REMARK   85  A    between atoms: _206  and  _209
REMARK   86  A    between atoms: _209  and  _210
REMARK   87  A    between atoms: _210  and  _211
REMARK   88  A    between atoms: _211  and  _212
REMARK   89  A    between atoms: _221  and  _223
REMARK   90  A    between atoms: _223  and  _224
REMARK   91  A    between atoms: _223  and  _226
REMARK   92  A    between atoms: _226  and  _227
REMARK   93  A    between atoms: _230  and  _232
REMARK   94  A    between atoms: _232  and  _233
REMARK   95  A    between atoms: _235  and  _237
REMARK   96  A    between atoms: _237  and  _238
REMARK   97  A    between atoms: _237  and  _240
REMARK   98  A    between atoms: _240  and  _241
REMARK   99  A    between atoms: _244  and  _246
REMARK  100  A    between atoms: _246  and  _247
REMARK  101  A    between atoms: _246  and  _249
REMARK  102  A    between atoms: _249  and  _250
REMARK  103  A    between atoms: _250  and  _251
REMARK  104  A    between atoms: _251  and  _252
REMARK                            x       y       z     vdW  Elec       q    Type
REMARK                         _______ _______ _______ _____ _____    ______ ____
ROOT
ATOM      1  O   HOH     1       7.134  -3.184   0.561  0.00  0.00    +0.000 OA
ENDROOT
TORSDOF 0
REMARK  Name = ../refined-set-2016/4np2/4np2_pocket.pdb
REMARK  104 active torsions:
REMARK  status: ('A' for Active; 'I' for Inactive)
REMARK    1  A    between atoms: _1  and  _3
REMARK    2  A    between atoms: _3  and  _4
REMARK    3  A    between atoms: _3  and  _6
REMARK    4  A    between atoms: _6  and  _7
REMARK    5  A    between atoms: _10  and  _12
REMARK    6  A    between atoms: _12  and  _13
REMARK    7  A    between atoms: _12  and  _15
REMARK    8  A    between atoms: _15  and  _16
REMARK    9  A    between atoms: _21  and  _23
REMARK   10  A    between atoms: _23  and  _24
REMARK   11  A    between atoms: _23  and  _26
REMARK   12  A    between atoms: _29  and  _31
REMARK   13  A    between atoms: _31  and  _32
REMARK   14  A    between atoms: _31  and  _34
REMARK   15  A    between atoms: _34  and  _35
REMARK   16  A    between atoms: _38  and  _40
REMARK   17  A    between atoms: _40  and  _41
REMARK   18  A    between atoms: _40  and  _43
REMARK   19  A    between atoms: _45  and  _47
REMARK   20  A    between atoms: _47  and  _48
REMARK   21  A    between atoms: _47  and  _50
REMARK   22  A    between atoms: _50  and  _51
REMARK   23  A    between atoms: _56  and  _58
REMARK   24  A    between atoms: _58  and  _59
REMARK   25  A    between atoms: _58  and  _61
REMARK   26  A    between atoms: _64  and  _66
REMARK   27  A    between atoms: _66  and  _67
REMARK   28  A    between atoms: _66  and  _69
REMARK   29  A    between atoms: _69  and  _70
REMARK   30  A    between atoms: _70  and  _71
REMARK   31  A    between atoms: _74  and  _76
REMARK   32  A    between atoms: _76  and  _77
REMARK   33  A    between atoms: _76  and  _79
REMARK   34  A    between atoms: _79  and  _80
REMARK   35  A    between atoms: _80  and  _81
REMARK   36  A    between atoms: _81  and  _82
REMARK   37  A    between atoms: _82  and  _83
REMARK   38  A    between atoms: _87  and  _89
REMARK   39  A    between atoms: _89  and  _90
REMARK   40  A    between atoms: _89  and  _92
REMARK   41  A    between atoms: _92  and  _93
REMARK   42  A    between atoms: _98  and  _100
REMARK   43  A    between atoms: _100  and  _101
REMARK   44  A    between atoms: _103  and  _105
REMARK   45  A    between atoms: _105  and  _106
REMARK   46  A    between atoms: _105  and  _108
REMARK   47  A    between atoms: _108  and  _109
REMARK   48  A    between atoms: _109  and  _110
REMARK   49  A    between atoms: _110  and  _111
REMARK   50  A    between atoms: _120  and  _122
REMARK   51  A    between atoms: _122  and  _123
REMARK   52  A    between atoms: _122  and  _125
REMARK   53  A    between atoms: _125  and  _126
REMARK   54  A    between atoms: _131  and  _132
REMARK   55  A    between atoms: _134  and  _136
REMARK   56  A    between atoms: _136  and  _137
REMARK   57  A    between atoms: _136  and  _139
REMARK   58  A    between atoms: _139  and  _140
REMARK   59  A    between atoms: _143  and  _145
REMARK   60  A    between atoms: _145  and  _146
REMARK   61  A    between atoms: _145  and  _148
REMARK   62  A    between atoms: _150  and  _152
REMARK   63  A    between atoms: _152  and  _153
REMARK   64  A    between atoms: _152  and  _155
REMARK   65  A    between atoms: _155  and  _156
REMARK   66  A    between atoms: _156  and  _157
REMARK   67  A    between atoms: _157  and  _158
REMARK   68  A    between atoms: _167  and  _169
REMARK   69  A    between atoms: _169  and  _170
REMARK   70  A    between atoms: _169  and  _172
REMARK   71  A    between atoms: _172  and  _173
REMARK   72  A    between atoms: _176  and  _178
REMARK   73  A    between atoms: _178  and  _179
REMARK   74  A    between atoms: _178  and  _181
REMARK   75  A    between atoms: _181  and  _182
REMARK   76  A    between atoms: _185  and  _187
REMARK   77  A    between atoms: _187  and  _188
REMARK   78  A    between atoms: _187  and  _190
REMARK   79  A    between atoms: _193  and  _195
REMARK   80  A    between atoms: _195  and  _196
REMARK   81  A    between atoms: _195  and  _198
REMARK   82  A    between atoms: _198  and  _199
REMARK   83  A    between atoms: _204  and  _206
REMARK   84  A    between atoms: _206  and  _207
REMARK   85  A    between atoms: _206  and  _209
REMARK   86  A    between atoms: _209  and  _210
REMARK   87  A    between atoms: _210  and  _211
REMARK   88  A    between atoms: _211  and  _212
REMARK   89  A    between atoms: _221  and  _223
REMARK   90  A    between atoms: _223  and  _224
REMARK   91  A    between atoms: _223  and  _226
REMARK   92  A    between atoms: _226  and  _227
REMARK   93  A    between atoms: _230  and  _232
REMARK   94  A    between atoms: _232  and  _233
REMARK   95  A    between atoms: _235  and  _237
REMARK   96  A    between atoms: _237  and  _238
REMARK   97  A    between atoms: _237  and  _240
REMARK   98  A    between atoms: _240  and  _241
REMARK   99  A    between atoms: _244  and  _246
REMARK  100  A    between atoms: _246  and  _247
REMARK  101  A    between atoms: _246  and  _249
REMARK  102  A    between atoms: _249  and  _250
REMARK  103  A    between atoms: _250  and  _251
REMARK  104  A    between atoms: _251  and  _252
REMARK                            x       y       z     vdW  Elec       q    Type
REMARK                         _______ _______ _______ _____ _____    ______ ____
ROOT
ATOM      1  O   HOH     1      11.909  -3.975  10.965  0.00  0.00    +0.000 OA
ENDROOT
TORSDOF 0
REMARK  Name = ../refined-set-2016/4np2/4np2_pocket.pdb
REMARK  104 active torsions:
REMARK  status: ('A' for Active; 'I' for Inactive)
REMARK    1  A    between atoms: _1  and  _3
REMARK    2  A    between atoms: _3  and  _4
REMARK    3  A    between atoms: _3  and  _6
REMARK    4  A    between atoms: _6  and  _7
REMARK    5  A    between atoms: _10  and  _12
REMARK    6  A    between atoms: _12  and  _13
REMARK    7  A    between atoms: _12  and  _15
REMARK    8  A    between atoms: _15  and  _16
REMARK    9  A    between atoms: _21  and  _23
REMARK   10  A    between atoms: _23  and  _24
REMARK   11  A    between atoms: _23  and  _26
REMARK   12  A    between atoms: _29  and  _31
REMARK   13  A    between atoms: _31  and  _32
REMARK   14  A    between atoms: _31  and  _34
REMARK   15  A    between atoms: _34  and  _35
REMARK   16  A    between atoms: _38  and  _40
REMARK   17  A    between atoms: _40  and  _41
REMARK   18  A    between atoms: _40  and  _43
REMARK   19  A    between atoms: _45  and  _47
REMARK   20  A    between atoms: _47  and  _48
REMARK   21  A    between atoms: _47  and  _50
REMARK   22  A    between atoms: _50  and  _51
REMARK   23  A    between atoms: _56  and  _58
REMARK   24  A    between atoms: _58  and  _59
REMARK   25  A    between atoms: _58  and  _61
REMARK   26  A    between atoms: _64  and  _66
REMARK   27  A    between atoms: _66  and  _67
REMARK   28  A    between atoms: _66  and  _69
REMARK   29  A    between atoms: _69  and  _70
REMARK   30  A    between atoms: _70  and  _71
REMARK   31  A    between atoms: _74  and  _76
REMARK   32  A    between atoms: _76  and  _77
REMARK   33  A    between atoms: _76  and  _79
REMARK   34  A    between atoms: _79  and  _80
REMARK   35  A    between atoms: _80  and  _81
REMARK   36  A    between atoms: _81  and  _82
REMARK   37  A    between atoms: _82  and  _83
REMARK   38  A    between atoms: _87  and  _89
REMARK   39  A    between atoms: _89  and  _90
REMARK   40  A    between atoms: _89  and  _92
REMARK   41  A    between atoms: _92  and  _93
REMARK   42  A    between atoms: _98  and  _100
REMARK   43  A    between atoms: _100  and  _101
REMARK   44  A    between atoms: _103  and  _105
REMARK   45  A    between atoms: _105  and  _106
REMARK   46  A    between atoms: _105  and  _108
REMARK   47  A    between atoms: _108  and  _109
REMARK   48  A    between atoms: _109  and  _110
REMARK   49  A    between atoms: _110  and  _111
REMARK   50  A    between atoms: _120  and  _122
REMARK   51  A    between atoms: _122  and  _123
REMARK   52  A    between atoms: _122  and  _125
REMARK   53  A    between atoms: _125  and  _126
REMARK   54  A    between atoms: _131  and  _132
REMARK   55  A    between atoms: _134  and  _136
REMARK   56  A    between atoms: _136  and  _137
REMARK   57  A    between atoms: _136  and  _139
REMARK   58  A    between atoms: _139  and  _140
REMARK   59  A    between atoms: _143  and  _145
REMARK   60  A    between atoms: _145  and  _146
REMARK   61  A    between atoms: _145  and  _148
REMARK   62  A    between atoms: _150  and  _152
REMARK   63  A    between atoms: _152  and  _153
REMARK   64  A    between atoms: _152  and  _155
REMARK   65  A    between atoms: _155  and  _156
REMARK   66  A    between atoms: _156  and  _157
REMARK   67  A    between atoms: _157  and  _158
REMARK   68  A    between atoms: _167  and  _169
REMARK   69  A    between atoms: _169  and  _170
REMARK   70  A    between atoms: _169  and  _172
REMARK   71  A    between atoms: _172  and  _173
REMARK   72  A    between atoms: _176  and  _178
REMARK   73  A    between atoms: _178  and  _179
REMARK   74  A    between atoms: _178  and  _181
REMARK   75  A    between atoms: _181  and  _182
REMARK   76  A    between atoms: _185  and  _187
REMARK   77  A    between atoms: _187  and  _188
REMARK   78  A    between atoms: _187  and  _190
REMARK   79  A    between atoms: _193  and  _195
REMARK   80  A    between atoms: _195  and  _196
REMARK   81  A    between atoms: _195  and  _198
REMARK   82  A    between atoms: _198  and  _199
REMARK   83  A    between atoms: _204  and  _206
REMARK   84  A    between atoms: _206  and  _207
REMARK   85  A    between atoms: _206  and  _209
REMARK   86  A    between atoms: _209  and  _210
REMARK   87  A    between atoms: _210  and  _211
REMARK   88  A    between atoms: _211  and  _212
REMARK   89  A    between atoms: _221  and  _223
REMARK   90  A    between atoms: _223  and  _224
REMARK   91  A    between atoms: _223  and  _226
REMARK   92  A    between atoms: _226  and  _227
REMARK   93  A    between atoms: _230  and  _232
REMARK   94  A    between atoms: _232  and  _233
REMARK   95  A    between atoms: _235  and  _237
REMARK   96  A    between atoms: _237  and  _238
REMARK   97  A    between atoms: _237  and  _240
REMARK   98  A    between atoms: _240  and  _241
REMARK   99  A    between atoms: _244  and  _246
REMARK  100  A    between atoms: _246  and  _247
REMARK  101  A    between atoms: _246  and  _249
REMARK  102  A    between atoms: _249  and  _250
REMARK  103  A    between atoms: _250  and  _251
REMARK  104  A    between atoms: _251  and  _252
REMARK                            x       y       z     vdW  Elec       q    Type
REMARK                         _______ _______ _______ _____ _____    ______ ____
ROOT
ATOM      1  O   HOH     1       6.041  -7.107  -4.964  0.00  0.00    +0.000 OA
ENDROOT
TORSDOF 0
REMARK  Name = ../refined-set-2016/4np2/4np2_pocket.pdb
REMARK  104 active torsions:
REMARK  status: ('A' for Active; 'I' for Inactive)
REMARK    1  A    between atoms: _1  and  _3
REMARK    2  A    between atoms: _3  and  _4
REMARK    3  A    between atoms: _3  and  _6
REMARK    4  A    between atoms: _6  and  _7
REMARK    5  A    between atoms: _10  and  _12
REMARK    6  A    between atoms: _12  and  _13
REMARK    7  A    between atoms: _12  and  _15
REMARK    8  A    between atoms: _15  and  _16
REMARK    9  A    between atoms: _21  and  _23
REMARK   10  A    between atoms: _23  and  _24
REMARK   11  A    between atoms: _23  and  _26
REMARK   12  A    between atoms: _29  and  _31
REMARK   13  A    between atoms: _31  and  _32
REMARK   14  A    between atoms: _31  and  _34
REMARK   15  A    between atoms: _34  and  _35
REMARK   16  A    between atoms: _38  and  _40
REMARK   17  A    between atoms: _40  and  _41
REMARK   18  A    between atoms: _40  and  _43
REMARK   19  A    between atoms: _45  and  _47
REMARK   20  A    between atoms: _47  and  _48
REMARK   21  A    between atoms: _47  and  _50
REMARK   22  A    between atoms: _50  and  _51
REMARK   23  A    between atoms: _56  and  _58
REMARK   24  A    between atoms: _58  and  _59
REMARK   25  A    between atoms: _58  and  _61
REMARK   26  A    between atoms: _64  and  _66
REMARK   27  A    between atoms: _66  and  _67
REMARK   28  A    between atoms: _66  and  _69
REMARK   29  A    between atoms: _69  and  _70
REMARK   30  A    between atoms: _70  and  _71
REMARK   31  A    between atoms: _74  and  _76
REMARK   32  A    between atoms: _76  and  _77
REMARK   33  A    between atoms: _76  and  _79
REMARK   34  A    between atoms: _79  and  _80
REMARK   35  A    between atoms: _80  and  _81
REMARK   36  A    between atoms: _81  and  _82
REMARK   37  A    between atoms: _82  and  _83
REMARK   38  A    between atoms: _87  and  _89
REMARK   39  A    between atoms: _89  and  _90
REMARK   40  A    between atoms: _89  and  _92
REMARK   41  A    between atoms: _92  and  _93
REMARK   42  A    between atoms: _98  and  _100
REMARK   43  A    between atoms: _100  and  _101
REMARK   44  A    between atoms: _103  and  _105
REMARK   45  A    between atoms: _105  and  _106
REMARK   46  A    between atoms: _105  and  _108
REMARK   47  A    between atoms: _108  and  _109
REMARK   48  A    between atoms: _109  and  _110
REMARK   49  A    between atoms: _110  and  _111
REMARK   50  A    between atoms: _120  and  _122
REMARK   51  A    between atoms: _122  and  _123
REMARK   52  A    between atoms: _122  and  _125
REMARK   53  A    between atoms: _125  and  _126
REMARK   54  A    between atoms: _131  and  _132
REMARK   55  A    between atoms: _134  and  _136
REMARK   56  A    between atoms: _136  and  _137
REMARK   57  A    between atoms: _136  and  _139
REMARK   58  A    between atoms: _139  and  _140
REMARK   59  A    between atoms: _143  and  _145
REMARK   60  A    between atoms: _145  and  _146
REMARK   61  A    between atoms: _145  and  _148
REMARK   62  A    between atoms: _150  and  _152
REMARK   63  A    between atoms: _152  and  _153
REMARK   64  A    between atoms: _152  and  _155
REMARK   65  A    between atoms: _155  and  _156
REMARK   66  A    between atoms: _156  and  _157
REMARK   67  A    between atoms: _157  and  _158
REMARK   68  A    between atoms: _167  and  _169
REMARK   69  A    between atoms: _169  and  _170
REMARK   70  A    between atoms: _169  and  _172
REMARK   71  A    between atoms: _172  and  _173
REMARK   72  A    between atoms: _176  and  _178
REMARK   73  A    between atoms: _178  and  _179
REMARK   74  A    between atoms: _178  and  _181
REMARK   75  A    between atoms: _181  and  _182
REMARK   76  A    between atoms: _185  and  _187
REMARK   77  A    between atoms: _187  and  _188
REMARK   78  A    between atoms: _187  and  _190
REMARK   79  A    between atoms: _193  and  _195
REMARK   80  A    between atoms: _195  and  _196
REMARK   81  A    between atoms: _195  and  _198
REMARK   82  A    between atoms: _198  and  _199
REMARK   83  A    between atoms: _204  and  _206
REMARK   84  A    between atoms: _206  and  _207
REMARK   85  A    between atoms: _206  and  _209
REMARK   86  A    between atoms: _209  and  _210
REMARK   87  A    between atoms: _210  and  _211
REMARK   88  A    between atoms: _211  and  _212
REMARK   89  A    between atoms: _221  and  _223
REMARK   90  A    between atoms: _223  and  _224
REMARK   91  A    between atoms: _223  and  _226
REMARK   92  A    between atoms: _226  and  _227
REMARK   93  A    between atoms: _230  and  _232
REMARK   94  A    between atoms: _232  and  _233
REMARK   95  A    between atoms: _235  and  _237
REMARK   96  A    between atoms: _237  and  _238
REMARK   97  A    between atoms: _237  and  _240
REMARK   98  A    between atoms: _240  and  _241
REMARK   99  A    between atoms: _244  and  _246
REMARK  100  A    between atoms: _246  and  _247
REMARK  101  A    between atoms: _246  and  _249
REMARK  102  A    between atoms: _249  and  _250
REMARK  103  A    between atoms: _250  and  _251
REMARK  104  A    between atoms: _251  and  _252
REMARK                            x       y       z     vdW  Elec       q    Type
REMARK                         _______ _______ _______ _____ _____    ______ ____
ROOT
ATOM      1  O   HOH     1       8.038  -9.460  11.158  0.00  0.00    +0.000 OA
ENDROOT
TORSDOF 0
REMARK  Name = ../refined-set-2016/4np2/4np2_pocket.pdb
REMARK  104 active torsions:
REMARK  status: ('A' for Active; 'I' for Inactive)
REMARK    1  A    between atoms: _1  and  _3
REMARK    2  A    between atoms: _3  and  _4
REMARK    3  A    between atoms: _3  and  _6
REMARK    4  A    between atoms: _6  and  _7
REMARK    5  A    between atoms: _10  and  _12
REMARK    6  A    between atoms: _12  and  _13
REMARK    7  A    between atoms: _12  and  _15
REMARK    8  A    between atoms: _15  and  _16
REMARK    9  A    between atoms: _21  and  _23
REMARK   10  A    between atoms: _23  and  _24
REMARK   11  A    between atoms: _23  and  _26
REMARK   12  A    between atoms: _29  and  _31
REMARK   13  A    between atoms: _31  and  _32
REMARK   14  A    between atoms: _31  and  _34
REMARK   15  A    between atoms: _34  and  _35
REMARK   16  A    between atoms: _38  and  _40
REMARK   17  A    between atoms: _40  and  _41
REMARK   18  A    between atoms: _40  and  _43
REMARK   19  A    between atoms: _45  and  _47
REMARK   20  A    between atoms: _47  and  _48
REMARK   21  A    between atoms: _47  and  _50
REMARK   22  A    between atoms: _50  and  _51
REMARK   23  A    between atoms: _56  and  _58
REMARK   24  A    between atoms: _58  and  _59
REMARK   25  A    between atoms: _58  and  _61
REMARK   26  A    between atoms: _64  and  _66
REMARK   27  A    between atoms: _66  and  _67
REMARK   28  A    between atoms: _66  and  _69
REMARK   29  A    between atoms: _69  and  _70
REMARK   30  A    between atoms: _70  and  _71
REMARK   31  A    between atoms: _74  and  _76
REMARK   32  A    between atoms: _76  and  _77
REMARK   33  A    between atoms: _76  and  _79
REMARK   34  A    between atoms: _79  and  _80
REMARK   35  A    between atoms: _80  and  _81
REMARK   36  A    between atoms: _81  and  _82
REMARK   37  A    between atoms: _82  and  _83
REMARK   38  A    between atoms: _87  and  _89
REMARK   39  A    between atoms: _89  and  _90
REMARK   40  A    between atoms: _89  and  _92
REMARK   41  A    between atoms: _92  and  _93
REMARK   42  A    between atoms: _98  and  _100
REMARK   43  A    between atoms: _100  and  _101
REMARK   44  A    between atoms: _103  and  _105
REMARK   45  A    between atoms: _105  and  _106
REMARK   46  A    between atoms: _105  and  _108
REMARK   47  A    between atoms: _108  and  _109
REMARK   48  A    between atoms: _109  and  _110
REMARK   49  A    between atoms: _110  and  _111
REMARK   50  A    between atoms: _120  and  _122
REMARK   51  A    between atoms: _122  and  _123
REMARK   52  A    between atoms: _122  and  _125
REMARK   53  A    between atoms: _125  and  _126
REMARK   54  A    between atoms: _131  and  _132
REMARK   55  A    between atoms: _134  and  _136
REMARK   56  A    between atoms: _136  and  _137
REMARK   57  A    between atoms: _136  and  _139
REMARK   58  A    between atoms: _139  and  _140
REMARK   59  A    between atoms: _143  and  _145
REMARK   60  A    between atoms: _145  and  _146
REMARK   61  A    between atoms: _145  and  _148
REMARK   62  A    between atoms: _150  and  _152
REMARK   63  A    between atoms: _152  and  _153
REMARK   64  A    between atoms: _152  and  _155
REMARK   65  A    between atoms: _155  and  _156
REMARK   66  A    between atoms: _156  and  _157
REMARK   67  A    between atoms: _157  and  _158
REMARK   68  A    between atoms: _167  and  _169
REMARK   69  A    between atoms: _169  and  _170
REMARK   70  A    between atoms: _169  and  _172
REMARK   71  A    between atoms: _172  and  _173
REMARK   72  A    between atoms: _176  and  _178
REMARK   73  A    between atoms: _178  and  _179
REMARK   74  A    between atoms: _178  and  _181
REMARK   75  A    between atoms: _181  and  _182
REMARK   76  A    between atoms: _185  and  _187
REMARK   77  A    between atoms: _187  and  _188
REMARK   78  A    between atoms: _187  and  _190
REMARK   79  A    between atoms: _193  and  _195
REMARK   80  A    between atoms: _195  and  _196
REMARK   81  A    between atoms: _195  and  _198
REMARK   82  A    between atoms: _198  and  _199
REMARK   83  A    between atoms: _204  and  _206
REMARK   84  A    between atoms: _206  and  _207
REMARK   85  A    between atoms: _206  and  _209
REMARK   86  A    between atoms: _209  and  _210
REMARK   87  A    between atoms: _210  and  _211
REMARK   88  A    between atoms: _211  and  _212
REMARK   89  A    between atoms: _221  and  _223
REMARK   90  A    between atoms: _223  and  _224
REMARK   91  A    between atoms: _223  and  _226
REMARK   92  A    between atoms: _226  and  _227
REMARK   93  A    between atoms: _230  and  _232
REMARK   94  A    between atoms: _232  and  _233
REMARK   95  A    between atoms: _235  and  _237
REMARK   96  A    between atoms: _237  and  _238
REMARK   97  A    between atoms: _237  and  _240
REMARK   98  A    between atoms: _240  and  _241
REMARK   99  A    between atoms: _244  and  _246
REMARK  100  A    between atoms: _246  and  _247
REMARK  101  A    between atoms: _246  and  _249
REMARK  102  A    between atoms: _249  and  _250
REMARK  103  A    between atoms: _250  and  _251
REMARK  104  A    between atoms: _251  and  _252
REMARK                            x       y       z     vdW  Elec       q    Type
REMARK                         _______ _______ _______ _____ _____    ______ ____
ROOT
ATOM      1  O   HOH     1      15.455  -2.354  -2.054  0.00  0.00    +0.000 OA
ENDROOT
TORSDOF 0
REMARK  Name = ../refined-set-2016/4np2/4np2_pocket.pdb
REMARK  104 active torsions:
REMARK  status: ('A' for Active; 'I' for Inactive)
REMARK    1  A    between atoms: _1  and  _3
REMARK    2  A    between atoms: _3  and  _4
REMARK    3  A    between atoms: _3  and  _6
REMARK    4  A    between atoms: _6  and  _7
REMARK    5  A    between atoms: _10  and  _12
REMARK    6  A    between atoms: _12  and  _13
REMARK    7  A    between atoms: _12  and  _15
REMARK    8  A    between atoms: _15  and  _16
REMARK    9  A    between atoms: _21  and  _23
REMARK   10  A    between atoms: _23  and  _24
REMARK   11  A    between atoms: _23  and  _26
REMARK   12  A    between atoms: _29  and  _31
REMARK   13  A    between atoms: _31  and  _32
REMARK   14  A    between atoms: _31  and  _34
REMARK   15  A    between atoms: _34  and  _35
REMARK   16  A    between atoms: _38  and  _40
REMARK   17  A    between atoms: _40  and  _41
REMARK   18  A    between atoms: _40  and  _43
REMARK   19  A    between atoms: _45  and  _47
REMARK   20  A    between atoms: _47  and  _48
REMARK   21  A    between atoms: _47  and  _50
REMARK   22  A    between atoms: _50  and  _51
REMARK   23  A    between atoms: _56  and  _58
REMARK   24  A    between atoms: _58  and  _59
REMARK   25  A    between atoms: _58  and  _61
REMARK   26  A    between atoms: _64  and  _66
REMARK   27  A    between atoms: _66  and  _67
REMARK   28  A    between atoms: _66  and  _69
REMARK   29  A    between atoms: _69  and  _70
REMARK   30  A    between atoms: _70  and  _71
REMARK   31  A    between atoms: _74  and  _76
REMARK   32  A    between atoms: _76  and  _77
REMARK   33  A    between atoms: _76  and  _79
REMARK   34  A    between atoms: _79  and  _80
REMARK   35  A    between atoms: _80  and  _81
REMARK   36  A    between atoms: _81  and  _82
REMARK   37  A    between atoms: _82  and  _83
REMARK   38  A    between atoms: _87  and  _89
REMARK   39  A    between atoms: _89  and  _90
REMARK   40  A    between atoms: _89  and  _92
REMARK   41  A    between atoms: _92  and  _93
REMARK   42  A    between atoms: _98  and  _100
REMARK   43  A    between atoms: _100  and  _101
REMARK   44  A    between atoms: _103  and  _105
REMARK   45  A    between atoms: _105  and  _106
REMARK   46  A    between atoms: _105  and  _108
REMARK   47  A    between atoms: _108  and  _109
REMARK   48  A    between atoms: _109  and  _110
REMARK   49  A    between atoms: _110  and  _111
REMARK   50  A    between atoms: _120  and  _122
REMARK   51  A    between atoms: _122  and  _123
REMARK   52  A    between atoms: _122  and  _125
REMARK   53  A    between atoms: _125  and  _126
REMARK   54  A    between atoms: _131  and  _132
REMARK   55  A    between atoms: _134  and  _136
REMARK   56  A    between atoms: _136  and  _137
REMARK   57  A    between atoms: _136  and  _139
REMARK   58  A    between atoms: _139  and  _140
REMARK   59  A    between atoms: _143  and  _145
REMARK   60  A    between atoms: _145  and  _146
REMARK   61  A    between atoms: _145  and  _148
REMARK   62  A    between atoms: _150  and  _152
REMARK   63  A    between atoms: _152  and  _153
REMARK   64  A    between atoms: _152  and  _155
REMARK   65  A    between atoms: _155  and  _156
REMARK   66  A    between atoms: _156  and  _157
REMARK   67  A    between atoms: _157  and  _158
REMARK   68  A    between atoms: _167  and  _169
REMARK   69  A    between atoms: _169  and  _170
REMARK   70  A    between atoms: _169  and  _172
REMARK   71  A    between atoms: _172  and  _173
REMARK   72  A    between atoms: _176  and  _178
REMARK   73  A    between atoms: _178  and  _179
REMARK   74  A    between atoms: _178  and  _181
REMARK   75  A    between atoms: _181  and  _182
REMARK   76  A    between atoms: _185  and  _187
REMARK   77  A    between atoms: _187  and  _188
REMARK   78  A    between atoms: _187  and  _190
REMARK   79  A    between atoms: _193  and  _195
REMARK   80  A    between atoms: _195  and  _196
REMARK   81  A    between atoms: _195  and  _198
REMARK   82  A    between atoms: _198  and  _199
REMARK   83  A    between atoms: _204  and  _206
REMARK   84  A    between atoms: _206  and  _207
REMARK   85  A    between atoms: _206  and  _209
REMARK   86  A    between atoms: _209  and  _210
REMARK   87  A    between atoms: _210  and  _211
REMARK   88  A    between atoms: _211  and  _212
REMARK   89  A    between atoms: _221  and  _223
REMARK   90  A    between atoms: _223  and  _224
REMARK   91  A    between atoms: _223  and  _226
REMARK   92  A    between atoms: _226  and  _227
REMARK   93  A    between atoms: _230  and  _232
REMARK   94  A    between atoms: _232  and  _233
REMARK   95  A    between atoms: _235  and  _237
REMARK   96  A    between atoms: _237  and  _238
REMARK   97  A    between atoms: _237  and  _240
REMARK   98  A    between atoms: _240  and  _241
REMARK   99  A    between atoms: _244  and  _246
REMARK  100  A    between atoms: _246  and  _247
REMARK  101  A    between atoms: _246  and  _249
REMARK  102  A    between atoms: _249  and  _250
REMARK  103  A    between atoms: _250  and  _251
REMARK  104  A    between atoms: _251  and  _252
REMARK                            x       y       z     vdW  Elec       q    Type
REMARK                         _______ _______ _______ _____ _____    ______ ____
ROOT
ATOM      1  O   HOH     1       7.209  -9.223   2.890  0.00  0.00    +0.000 OA
ENDROOT
TORSDOF 0
REMARK  Name = ../refined-set-2016/4np2/4np2_pocket.pdb
REMARK  104 active torsions:
REMARK  status: ('A' for Active; 'I' for Inactive)
REMARK    1  A    between atoms: _1  and  _3
REMARK    2  A    between atoms: _3  and  _4
REMARK    3  A    between atoms: _3  and  _6
REMARK    4  A    between atoms: _6  and  _7
REMARK    5  A    between atoms: _10  and  _12
REMARK    6  A    between atoms: _12  and  _13
REMARK    7  A    between atoms: _12  and  _15
REMARK    8  A    between atoms: _15  and  _16
REMARK    9  A    between atoms: _21  and  _23
REMARK   10  A    between atoms: _23  and  _24
REMARK   11  A    between atoms: _23  and  _26
REMARK   12  A    between atoms: _29  and  _31
REMARK   13  A    between atoms: _31  and  _32
REMARK   14  A    between atoms: _31  and  _34
REMARK   15  A    between atoms: _34  and  _35
REMARK   16  A    between atoms: _38  and  _40
REMARK   17  A    between atoms: _40  and  _41
REMARK   18  A    between atoms: _40  and  _43
REMARK   19  A    between atoms: _45  and  _47
REMARK   20  A    between atoms: _47  and  _48
REMARK   21  A    between atoms: _47  and  _50
REMARK   22  A    between atoms: _50  and  _51
REMARK   23  A    between atoms: _56  and  _58
REMARK   24  A    between atoms: _58  and  _59
REMARK   25  A    between atoms: _58  and  _61
REMARK   26  A    between atoms: _64  and  _66
REMARK   27  A    between atoms: _66  and  _67
REMARK   28  A    between atoms: _66  and  _69
REMARK   29  A    between atoms: _69  and  _70
REMARK   30  A    between atoms: _70  and  _71
REMARK   31  A    between atoms: _74  and  _76
REMARK   32  A    between atoms: _76  and  _77
REMARK   33  A    between atoms: _76  and  _79
REMARK   34  A    between atoms: _79  and  _80
REMARK   35  A    between atoms: _80  and  _81
REMARK   36  A    between atoms: _81  and  _82
REMARK   37  A    between atoms: _82  and  _83
REMARK   38  A    between atoms: _87  and  _89
REMARK   39  A    between atoms: _89  and  _90
REMARK   40  A    between atoms: _89  and  _92
REMARK   41  A    between atoms: _92  and  _93
REMARK   42  A    between atoms: _98  and  _100
REMARK   43  A    between atoms: _100  and  _101
REMARK   44  A    between atoms: _103  and  _105
REMARK   45  A    between atoms: _105  and  _106
REMARK   46  A    between atoms: _105  and  _108
REMARK   47  A    between atoms: _108  and  _109
REMARK   48  A    between atoms: _109  and  _110
REMARK   49  A    between atoms: _110  and  _111
REMARK   50  A    between atoms: _120  and  _122
REMARK   51  A    between atoms: _122  and  _123
REMARK   52  A    between atoms: _122  and  _125
REMARK   53  A    between atoms: _125  and  _126
REMARK   54  A    between atoms: _131  and  _132
REMARK   55  A    between atoms: _134  and  _136
REMARK   56  A    between atoms: _136  and  _137
REMARK   57  A    between atoms: _136  and  _139
REMARK   58  A    between atoms: _139  and  _140
REMARK   59  A    between atoms: _143  and  _145
REMARK   60  A    between atoms: _145  and  _146
REMARK   61  A    between atoms: _145  and  _148
REMARK   62  A    between atoms: _150  and  _152
REMARK   63  A    between atoms: _152  and  _153
REMARK   64  A    between atoms: _152  and  _155
REMARK   65  A    between atoms: _155  and  _156
REMARK   66  A    between atoms: _156  and  _157
REMARK   67  A    between atoms: _157  and  _158
REMARK   68  A    between atoms: _167  and  _169
REMARK   69  A    between atoms: _169  and  _170
REMARK   70  A    between atoms: _169  and  _172
REMARK   71  A    between atoms: _172  and  _173
REMARK   72  A    between atoms: _176  and  _178
REMARK   73  A    between atoms: _178  and  _179
REMARK   74  A    between atoms: _178  and  _181
REMARK   75  A    between atoms: _181  and  _182
REMARK   76  A    between atoms: _185  and  _187
REMARK   77  A    between atoms: _187  and  _188
REMARK   78  A    between atoms: _187  and  _190
REMARK   79  A    between atoms: _193  and  _195
REMARK   80  A    between atoms: _195  and  _196
REMARK   81  A    between atoms: _195  and  _198
REMARK   82  A    between atoms: _198  and  _199
REMARK   83  A    between atoms: _204  and  _206
REMARK   84  A    between atoms: _206  and  _207
REMARK   85  A    between atoms: _206  and  _209
REMARK   86  A    between atoms: _209  and  _210
REMARK   87  A    between atoms: _210  and  _211
REMARK   88  A    between atoms: _211  and  _212
REMARK   89  A    between atoms: _221  and  _223
REMARK   90  A    between atoms: _223  and  _224
REMARK   91  A    between atoms: _223  and  _226
REMARK   92  A    between atoms: _226  and  _227
REMARK   93  A    between atoms: _230  and  _232
REMARK   94  A    between atoms: _232  and  _233
REMARK   95  A    between atoms: _235  and  _237
REMARK   96  A    between atoms: _237  and  _238
REMARK   97  A    between atoms: _237  and  _240
REMARK   98  A    between atoms: _240  and  _241
REMARK   99  A    between atoms: _244  and  _246
REMARK  100  A    between atoms: _246  and  _247
REMARK  101  A    between atoms: _246  and  _249
REMARK  102  A    between atoms: _249  and  _250
REMARK  103  A    between atoms: _250  and  _251
REMARK  104  A    between atoms: _251  and  _252
REMARK                            x       y       z     vdW  Elec       q    Type
REMARK                         _______ _______ _______ _____ _____    ______ ____
ROOT
ATOM      1  O   HOH     1      14.375  -4.229   4.305  0.00  0.00    +0.000 OA
ENDROOT
TORSDOF 0
REMARK  Name = ../refined-set-2016/4np2/4np2_pocket.pdb
REMARK  104 active torsions:
REMARK  status: ('A' for Active; 'I' for Inactive)
REMARK    1  A    between atoms: _1  and  _3
REMARK    2  A    between atoms: _3  and  _4
REMARK    3  A    between atoms: _3  and  _6
REMARK    4  A    between atoms: _6  and  _7
REMARK    5  A    between atoms: _10  and  _12
REMARK    6  A    between atoms: _12  and  _13
REMARK    7  A    between atoms: _12  and  _15
REMARK    8  A    between atoms: _15  and  _16
REMARK    9  A    between atoms: _21  and  _23
REMARK   10  A    between atoms: _23  and  _24
REMARK   11  A    between atoms: _23  and  _26
REMARK   12  A    between atoms: _29  and  _31
REMARK   13  A    between atoms: _31  and  _32
REMARK   14  A    between atoms: _31  and  _34
REMARK   15  A    between atoms: _34  and  _35
REMARK   16  A    between atoms: _38  and  _40
REMARK   17  A    between atoms: _40  and  _41
REMARK   18  A    between atoms: _40  and  _43
REMARK   19  A    between atoms: _45  and  _47
REMARK   20  A    between atoms: _47  and  _48
REMARK   21  A    between atoms: _47  and  _50
REMARK   22  A    between atoms: _50  and  _51
REMARK   23  A    between atoms: _56  and  _58
REMARK   24  A    between atoms: _58  and  _59
REMARK   25  A    between atoms: _58  and  _61
REMARK   26  A    between atoms: _64  and  _66
REMARK   27  A    between atoms: _66  and  _67
REMARK   28  A    between atoms: _66  and  _69
REMARK   29  A    between atoms: _69  and  _70
REMARK   30  A    between atoms: _70  and  _71
REMARK   31  A    between atoms: _74  and  _76
REMARK   32  A    between atoms: _76  and  _77
REMARK   33  A    between atoms: _76  and  _79
REMARK   34  A    between atoms: _79  and  _80
REMARK   35  A    between atoms: _80  and  _81
REMARK   36  A    between atoms: _81  and  _82
REMARK   37  A    between atoms: _82  and  _83
REMARK   38  A    between atoms: _87  and  _89
REMARK   39  A    between atoms: _89  and  _90
REMARK   40  A    between atoms: _89  and  _92
REMARK   41  A    between atoms: _92  and  _93
REMARK   42  A    between atoms: _98  and  _100
REMARK   43  A    between atoms: _100  and  _101
REMARK   44  A    between atoms: _103  and  _105
REMARK   45  A    between atoms: _105  and  _106
REMARK   46  A    between atoms: _105  and  _108
REMARK   47  A    between atoms: _108  and  _109
REMARK   48  A    between atoms: _109  and  _110
REMARK   49  A    between atoms: _110  and  _111
REMARK   50  A    between atoms: _120  and  _122
REMARK   51  A    between atoms: _122  and  _123
REMARK   52  A    between atoms: _122  and  _125
REMARK   53  A    between atoms: _125  and  _126
REMARK   54  A    between atoms: _131  and  _132
REMARK   55  A    between atoms: _134  and  _136
REMARK   56  A    between atoms: _136  and  _137
REMARK   57  A    between atoms: _136  and  _139
REMARK   58  A    between atoms: _139  and  _140
REMARK   59  A    between atoms: _143  and  _145
REMARK   60  A    between atoms: _145  and  _146
REMARK   61  A    between atoms: _145  and  _148
REMARK   62  A    between atoms: _150  and  _152
REMARK   63  A    between atoms: _152  and  _153
REMARK   64  A    between atoms: _152  and  _155
REMARK   65  A    between atoms: _155  and  _156
REMARK   66  A    between atoms: _156  and  _157
REMARK   67  A    between atoms: _157  and  _158
REMARK   68  A    between atoms: _167  and  _169
REMARK   69  A    between atoms: _169  and  _170
REMARK   70  A    between atoms: _169  and  _172
REMARK   71  A    between atoms: _172  and  _173
REMARK   72  A    between atoms: _176  and  _178
REMARK   73  A    between atoms: _178  and  _179
REMARK   74  A    between atoms: _178  and  _181
REMARK   75  A    between atoms: _181  and  _182
REMARK   76  A    between atoms: _185  and  _187
REMARK   77  A    between atoms: _187  and  _188
REMARK   78  A    between atoms: _187  and  _190
REMARK   79  A    between atoms: _193  and  _195
REMARK   80  A    between atoms: _195  and  _196
REMARK   81  A    between atoms: _195  and  _198
REMARK   82  A    between atoms: _198  and  _199
REMARK   83  A    between atoms: _204  and  _206
REMARK   84  A    between atoms: _206  and  _207
REMARK   85  A    between atoms: _206  and  _209
REMARK   86  A    between atoms: _209  and  _210
REMARK   87  A    between atoms: _210  and  _211
REMARK   88  A    between atoms: _211  and  _212
REMARK   89  A    between atoms: _221  and  _223
REMARK   90  A    between atoms: _223  and  _224
REMARK   91  A    between atoms: _223  and  _226
REMARK   92  A    between atoms: _226  and  _227
REMARK   93  A    between atoms: _230  and  _232
REMARK   94  A    between atoms: _232  and  _233
REMARK   95  A    between atoms: _235  and  _237
REMARK   96  A    between atoms: _237  and  _238
REMARK   97  A    between atoms: _237  and  _240
REMARK   98  A    between atoms: _240  and  _241
REMARK   99  A    between atoms: _244  and  _246
REMARK  100  A    between atoms: _246  and  _247
REMARK  101  A    between atoms: _246  and  _249
REMARK  102  A    between atoms: _249  and  _250
REMARK  103  A    between atoms: _250  and  _251
REMARK  104  A    between atoms: _251  and  _252
REMARK                            x       y       z     vdW  Elec       q    Type
REMARK                         _______ _______ _______ _____ _____    ______ ____
ROOT
ATOM      1  O   HOH     1      13.915  -4.564   8.936  0.00  0.00    +0.000 OA
ENDROOT
TORSDOF 0
REMARK  Name = ../refined-set-2016/4np2/4np2_pocket.pdb
REMARK  104 active torsions:
REMARK  status: ('A' for Active; 'I' for Inactive)
REMARK    1  A    between atoms: _1  and  _3
REMARK    2  A    between atoms: _3  and  _4
REMARK    3  A    between atoms: _3  and  _6
REMARK    4  A    between atoms: _6  and  _7
REMARK    5  A    between atoms: _10  and  _12
REMARK    6  A    between atoms: _12  and  _13
REMARK    7  A    between atoms: _12  and  _15
REMARK    8  A    between atoms: _15  and  _16
REMARK    9  A    between atoms: _21  and  _23
REMARK   10  A    between atoms: _23  and  _24
REMARK   11  A    between atoms: _23  and  _26
REMARK   12  A    between atoms: _29  and  _31
REMARK   13  A    between atoms: _31  and  _32
REMARK   14  A    between atoms: _31  and  _34
REMARK   15  A    between atoms: _34  and  _35
REMARK   16  A    between atoms: _38  and  _40
REMARK   17  A    between atoms: _40  and  _41
REMARK   18  A    between atoms: _40  and  _43
REMARK   19  A    between atoms: _45  and  _47
REMARK   20  A    between atoms: _47  and  _48
REMARK   21  A    between atoms: _47  and  _50
REMARK   22  A    between atoms: _50  and  _51
REMARK   23  A    between atoms: _56  and  _58
REMARK   24  A    between atoms: _58  and  _59
REMARK   25  A    between atoms: _58  and  _61
REMARK   26  A    between atoms: _64  and  _66
REMARK   27  A    between atoms: _66  and  _67
REMARK   28  A    between atoms: _66  and  _69
REMARK   29  A    between atoms: _69  and  _70
REMARK   30  A    between atoms: _70  and  _71
REMARK   31  A    between atoms: _74  and  _76
REMARK   32  A    between atoms: _76  and  _77
REMARK   33  A    between atoms: _76  and  _79
REMARK   34  A    between atoms: _79  and  _80
REMARK   35  A    between atoms: _80  and  _81
REMARK   36  A    between atoms: _81  and  _82
REMARK   37  A    between atoms: _82  and  _83
REMARK   38  A    between atoms: _87  and  _89
REMARK   39  A    between atoms: _89  and  _90
REMARK   40  A    between atoms: _89  and  _92
REMARK   41  A    between atoms: _92  and  _93
REMARK   42  A    between atoms: _98  and  _100
REMARK   43  A    between atoms: _100  and  _101
REMARK   44  A    between atoms: _103  and  _105
REMARK   45  A    between atoms: _105  and  _106
REMARK   46  A    between atoms: _105  and  _108
REMARK   47  A    between atoms: _108  and  _109
REMARK   48  A    between atoms: _109  and  _110
REMARK   49  A    between atoms: _110  and  _111
REMARK   50  A    between atoms: _120  and  _122
REMARK   51  A    between atoms: _122  and  _123
REMARK   52  A    between atoms: _122  and  _125
REMARK   53  A    between atoms: _125  and  _126
REMARK   54  A    between atoms: _131  and  _132
REMARK   55  A    between atoms: _134  and  _136
REMARK   56  A    between atoms: _136  and  _137
REMARK   57  A    between atoms: _136  and  _139
REMARK   58  A    between atoms: _139  and  _140
REMARK   59  A    between atoms: _143  and  _145
REMARK   60  A    between atoms: _145  and  _146
REMARK   61  A    between atoms: _145  and  _148
REMARK   62  A    between atoms: _150  and  _152
REMARK   63  A    between atoms: _152  and  _153
REMARK   64  A    between atoms: _152  and  _155
REMARK   65  A    between atoms: _155  and  _156
REMARK   66  A    between atoms: _156  and  _157
REMARK   67  A    between atoms: _157  and  _158
REMARK   68  A    between atoms: _167  and  _169
REMARK   69  A    between atoms: _169  and  _170
REMARK   70  A    between atoms: _169  and  _172
REMARK   71  A    between atoms: _172  and  _173
REMARK   72  A    between atoms: _176  and  _178
REMARK   73  A    between atoms: _178  and  _179
REMARK   74  A    between atoms: _178  and  _181
REMARK   75  A    between atoms: _181  and  _182
REMARK   76  A    between atoms: _185  and  _187
REMARK   77  A    between atoms: _187  and  _188
REMARK   78  A    between atoms: _187  and  _190
REMARK   79  A    between atoms: _193  and  _195
REMARK   80  A    between atoms: _195  and  _196
REMARK   81  A    between atoms: _195  and  _198
REMARK   82  A    between atoms: _198  and  _199
REMARK   83  A    between atoms: _204  and  _206
REMARK   84  A    between atoms: _206  and  _207
REMARK   85  A    between atoms: _206  and  _209
REMARK   86  A    between atoms: _209  and  _210
REMARK   87  A    between atoms: _210  and  _211
REMARK   88  A    between atoms: _211  and  _212
REMARK   89  A    between atoms: _221  and  _223
REMARK   90  A    between atoms: _223  and  _224
REMARK   91  A    between atoms: _223  and  _226
REMARK   92  A    between atoms: _226  and  _227
REMARK   93  A    between atoms: _230  and  _232
REMARK   94  A    between atoms: _232  and  _233
REMARK   95  A    between atoms: _235  and  _237
REMARK   96  A    between atoms: _237  and  _238
REMARK   97  A    between atoms: _237  and  _240
REMARK   98  A    between atoms: _240  and  _241
REMARK   99  A    between atoms: _244  and  _246
REMARK  100  A    between atoms: _246  and  _247
REMARK  101  A    between atoms: _246  and  _249
REMARK  102  A    between atoms: _249  and  _250
REMARK  103  A    between atoms: _250  and  _251
REMARK  104  A    between atoms: _251  and  _252
REMARK                            x       y       z     vdW  Elec       q    Type
REMARK                         _______ _______ _______ _____ _____    ______ ____
ROOT
ATOM      1  O   HOH     1      16.073  -9.959   4.086  0.00  0.00    +0.000 OA
ENDROOT
TORSDOF 0
REMARK  Name = ../refined-set-2016/4np2/4np2_pocket.pdb
REMARK  104 active torsions:
REMARK  status: ('A' for Active; 'I' for Inactive)
REMARK    1  A    between atoms: _1  and  _3
REMARK    2  A    between atoms: _3  and  _4
REMARK    3  A    between atoms: _3  and  _6
REMARK    4  A    between atoms: _6  and  _7
REMARK    5  A    between atoms: _10  and  _12
REMARK    6  A    between atoms: _12  and  _13
REMARK    7  A    between atoms: _12  and  _15
REMARK    8  A    between atoms: _15  and  _16
REMARK    9  A    between atoms: _21  and  _23
REMARK   10  A    between atoms: _23  and  _24
REMARK   11  A    between atoms: _23  and  _26
REMARK   12  A    between atoms: _29  and  _31
REMARK   13  A    between atoms: _31  and  _32
REMARK   14  A    between atoms: _31  and  _34
REMARK   15  A    between atoms: _34  and  _35
REMARK   16  A    between atoms: _38  and  _40
REMARK   17  A    between atoms: _40  and  _41
REMARK   18  A    between atoms: _40  and  _43
REMARK   19  A    between atoms: _45  and  _47
REMARK   20  A    between atoms: _47  and  _48
REMARK   21  A    between atoms: _47  and  _50
REMARK   22  A    between atoms: _50  and  _51
REMARK   23  A    between atoms: _56  and  _58
REMARK   24  A    between atoms: _58  and  _59
REMARK   25  A    between atoms: _58  and  _61
REMARK   26  A    between atoms: _64  and  _66
REMARK   27  A    between atoms: _66  and  _67
REMARK   28  A    between atoms: _66  and  _69
REMARK   29  A    between atoms: _69  and  _70
REMARK   30  A    between atoms: _70  and  _71
REMARK   31  A    between atoms: _74  and  _76
REMARK   32  A    between atoms: _76  and  _77
REMARK   33  A    between atoms: _76  and  _79
REMARK   34  A    between atoms: _79  and  _80
REMARK   35  A    between atoms: _80  and  _81
REMARK   36  A    between atoms: _81  and  _82
REMARK   37  A    between atoms: _82  and  _83
REMARK   38  A    between atoms: _87  and  _89
REMARK   39  A    between atoms: _89  and  _90
REMARK   40  A    between atoms: _89  and  _92
REMARK   41  A    between atoms: _92  and  _93
REMARK   42  A    between atoms: _98  and  _100
REMARK   43  A    between atoms: _100  and  _101
REMARK   44  A    between atoms: _103  and  _105
REMARK   45  A    between atoms: _105  and  _106
REMARK   46  A    between atoms: _105  and  _108
REMARK   47  A    between atoms: _108  and  _109
REMARK   48  A    between atoms: _109  and  _110
REMARK   49  A    between atoms: _110  and  _111
REMARK   50  A    between atoms: _120  and  _122
REMARK   51  A    between atoms: _122  and  _123
REMARK   52  A    between atoms: _122  and  _125
REMARK   53  A    between atoms: _125  and  _126
REMARK   54  A    between atoms: _131  and  _132
REMARK   55  A    between atoms: _134  and  _136
REMARK   56  A    between atoms: _136  and  _137
REMARK   57  A    between atoms: _136  and  _139
REMARK   58  A    between atoms: _139  and  _140
REMARK   59  A    between atoms: _143  and  _145
REMARK   60  A    between atoms: _145  and  _146
REMARK   61  A    between atoms: _145  and  _148
REMARK   62  A    between atoms: _150  and  _152
REMARK   63  A    between atoms: _152  and  _153
REMARK   64  A    between atoms: _152  and  _155
REMARK   65  A    between atoms: _155  and  _156
REMARK   66  A    between atoms: _156  and  _157
REMARK   67  A    between atoms: _157  and  _158
REMARK   68  A    between atoms: _167  and  _169
REMARK   69  A    between atoms: _169  and  _170
REMARK   70  A    between atoms: _169  and  _172
REMARK   71  A    between atoms: _172  and  _173
REMARK   72  A    between atoms: _176  and  _178
REMARK   73  A    between atoms: _178  and  _179
REMARK   74  A    between atoms: _178  and  _181
REMARK   75  A    between atoms: _181  and  _182
REMARK   76  A    between atoms: _185  and  _187
REMARK   77  A    between atoms: _187  and  _188
REMARK   78  A    between atoms: _187  and  _190
REMARK   79  A    between atoms: _193  and  _195
REMARK   80  A    between atoms: _195  and  _196
REMARK   81  A    between atoms: _195  and  _198
REMARK   82  A    between atoms: _198  and  _199
REMARK   83  A    between atoms: _204  and  _206
REMARK   84  A    between atoms: _206  and  _207
REMARK   85  A    between atoms: _206  and  _209
REMARK   86  A    between atoms: _209  and  _210
REMARK   87  A    between atoms: _210  and  _211
REMARK   88  A    between atoms: _211  and  _212
REMARK   89  A    between atoms: _221  and  _223
REMARK   90  A    between atoms: _223  and  _224
REMARK   91  A    between atoms: _223  and  _226
REMARK   92  A    between atoms: _226  and  _227
REMARK   93  A    between atoms: _230  and  _232
REMARK   94  A    between atoms: _232  and  _233
REMARK   95  A    between atoms: _235  and  _237
REMARK   96  A    between atoms: _237  and  _238
REMARK   97  A    between atoms: _237  and  _240
REMARK   98  A    between atoms: _240  and  _241
REMARK   99  A    between atoms: _244  and  _246
REMARK  100  A    between atoms: _246  and  _247
REMARK  101  A    between atoms: _246  and  _249
REMARK  102  A    between atoms: _249  and  _250
REMARK  103  A    between atoms: _250  and  _251
REMARK  104  A    between atoms: _251  and  _252
REMARK                            x       y       z     vdW  Elec       q    Type
REMARK                         _______ _______ _______ _____ _____    ______ ____
ROOT
ATOM      1  O   HOH     1       6.501  -7.267   1.158  0.00  0.00    +0.000 OA
ENDROOT
TORSDOF 0
